<?xml version="1.0" encoding="UTF-8"?>

<!-- generated on Fri Dec  9 21:07:43 2016 by SUMO duarouter Version 0.25.0
<?xml version="1.0" encoding="UTF-8"?>

<configuration xmlns:xsi="http://www.w3.org/2001/XMLSchema-instance" xsi:noNamespaceSchemaLocation="http://sumo.dlr.de/xsd/duarouterConfiguration.xsd">

    <input>
        <net-file value="input.net.xml"/>
        <flow-files value="input.flow.xml"/>
    </input>

    <output>
        <output-file value="input.rou.xml"/>
    </output>

    <processing>
        <randomize-flows value="true"/>
    </processing>

    <random_number>
        <random value="true"/>
    </random_number>

</configuration>
-->

<routes xmlns:xsi="http://www.w3.org/2001/XMLSchema-instance" xsi:noNamespaceSchemaLocation="http://sumo.dlr.de/xsd/routes_file.xsd">
    <vType id="passenger" length="4.30" minGap="2.50" maxSpeed="23.33" speedFactor="1.00" speedDev="0.10" color="yellow">
        <carFollowing-Krauss accel="2.90" decel="7.50" sigma="0.50"/>
    </vType>
    <vehicle id="50" type="passenger" depart="1.80" departLane="random" departPos="base" departSpeed="random">
        <route edges="edge1 edge4"/>
    </vehicle>
    <vehicle id="0" type="passenger" depart="2.17" departLane="random" departPos="base" departSpeed="random">
        <route edges="edge1 edge2"/>
    </vehicle>
    <vehicle id="100" type="passenger" depart="3.22" departLane="random" departPos="base" departSpeed="random">
        <route edges="edge1 edge3"/>
    </vehicle>
    <vehicle id="101" type="passenger" depart="4.97" departLane="random" departPos="base" departSpeed="random">
        <route edges="edge1 edge3"/>
    </vehicle>
    <vehicle id="1" type="passenger" depart="6.17" departLane="random" departPos="base" departSpeed="random">
        <route edges="edge1 edge2"/>
    </vehicle>
    <vehicle id="102" type="passenger" depart="8.10" departLane="random" departPos="base" departSpeed="random">
        <route edges="edge1 edge3"/>
    </vehicle>
    <vehicle id="51" type="passenger" depart="9.24" departLane="random" departPos="base" departSpeed="random">
        <route edges="edge1 edge4"/>
    </vehicle>
    <vehicle id="52" type="passenger" depart="9.50" departLane="random" departPos="base" departSpeed="random">
        <route edges="edge1 edge4"/>
    </vehicle>
    <vehicle id="103" type="passenger" depart="10.73" departLane="random" departPos="base" departSpeed="random">
        <route edges="edge1 edge3"/>
    </vehicle>
    <vehicle id="2" type="passenger" depart="11.46" departLane="random" departPos="base" departSpeed="random">
        <route edges="edge1 edge2"/>
    </vehicle>
    <vehicle id="104" type="passenger" depart="11.66" departLane="random" departPos="base" departSpeed="random">
        <route edges="edge1 edge3"/>
    </vehicle>
    <vehicle id="53" type="passenger" depart="14.12" departLane="random" departPos="base" departSpeed="random">
        <route edges="edge1 edge4"/>
    </vehicle>
    <vehicle id="54" type="passenger" depart="15.07" departLane="random" departPos="base" departSpeed="random">
        <route edges="edge1 edge4"/>
    </vehicle>
    <vehicle id="3" type="passenger" depart="16.11" departLane="random" departPos="base" departSpeed="random">
        <route edges="edge1 edge2"/>
    </vehicle>
    <vehicle id="4" type="passenger" depart="16.91" departLane="random" departPos="base" departSpeed="random">
        <route edges="edge1 edge2"/>
    </vehicle>
    <vehicle id="105" type="passenger" depart="17.00" departLane="random" departPos="base" departSpeed="random">
        <route edges="edge1 edge3"/>
    </vehicle>
    <vehicle id="5" type="passenger" depart="18.17" departLane="random" departPos="base" departSpeed="random">
        <route edges="edge1 edge2"/>
    </vehicle>
    <vehicle id="106" type="passenger" depart="19.64" departLane="random" departPos="base" departSpeed="random">
        <route edges="edge1 edge3"/>
    </vehicle>
    <vehicle id="55" type="passenger" depart="19.69" departLane="random" departPos="base" departSpeed="random">
        <route edges="edge1 edge4"/>
    </vehicle>
    <vehicle id="107" type="passenger" depart="21.02" departLane="random" departPos="base" departSpeed="random">
        <route edges="edge1 edge3"/>
    </vehicle>
    <vehicle id="108" type="passenger" depart="21.29" departLane="random" departPos="base" departSpeed="random">
        <route edges="edge1 edge3"/>
    </vehicle>
    <vehicle id="6" type="passenger" depart="23.68" departLane="random" departPos="base" departSpeed="random">
        <route edges="edge1 edge2"/>
    </vehicle>
    <vehicle id="7" type="passenger" depart="28.18" departLane="random" departPos="base" departSpeed="random">
        <route edges="edge1 edge2"/>
    </vehicle>
    <vehicle id="8" type="passenger" depart="28.46" departLane="random" departPos="base" departSpeed="random">
        <route edges="edge1 edge2"/>
    </vehicle>
    <vehicle id="109" type="passenger" depart="30.44" departLane="random" departPos="base" departSpeed="random">
        <route edges="edge1 edge3"/>
    </vehicle>
    <vehicle id="56" type="passenger" depart="32.16" departLane="random" departPos="base" departSpeed="random">
        <route edges="edge1 edge4"/>
    </vehicle>
    <vehicle id="9" type="passenger" depart="40.33" departLane="random" departPos="base" departSpeed="random">
        <route edges="edge1 edge2"/>
    </vehicle>
    <vehicle id="110" type="passenger" depart="40.61" departLane="random" departPos="base" departSpeed="random">
        <route edges="edge1 edge3"/>
    </vehicle>
    <vehicle id="111" type="passenger" depart="40.63" departLane="random" departPos="base" departSpeed="random">
        <route edges="edge1 edge3"/>
    </vehicle>
    <vehicle id="57" type="passenger" depart="44.63" departLane="random" departPos="base" departSpeed="random">
        <route edges="edge1 edge4"/>
    </vehicle>
    <vehicle id="112" type="passenger" depart="45.17" departLane="random" departPos="base" departSpeed="random">
        <route edges="edge1 edge3"/>
    </vehicle>
    <vehicle id="10" type="passenger" depart="48.17" departLane="random" departPos="base" departSpeed="random">
        <route edges="edge1 edge2"/>
    </vehicle>
    <vehicle id="58" type="passenger" depart="51.85" departLane="random" departPos="base" departSpeed="random">
        <route edges="edge1 edge4"/>
    </vehicle>
    <vehicle id="59" type="passenger" depart="52.73" departLane="random" departPos="base" departSpeed="random">
        <route edges="edge1 edge4"/>
    </vehicle>
    <vehicle id="11" type="passenger" depart="53.52" departLane="random" departPos="base" departSpeed="random">
        <route edges="edge1 edge2"/>
    </vehicle>
    <vehicle id="12" type="passenger" depart="55.72" departLane="random" departPos="base" departSpeed="random">
        <route edges="edge1 edge2"/>
    </vehicle>
    <vehicle id="13" type="passenger" depart="58.24" departLane="random" departPos="base" departSpeed="random">
        <route edges="edge1 edge2"/>
    </vehicle>
    <vehicle id="113" type="passenger" depart="58.57" departLane="random" departPos="base" departSpeed="random">
        <route edges="edge1 edge3"/>
    </vehicle>
    <vehicle id="114" type="passenger" depart="58.89" departLane="random" departPos="base" departSpeed="random">
        <route edges="edge1 edge3"/>
    </vehicle>
    <vehicle id="14" type="passenger" depart="59.04" departLane="random" departPos="base" departSpeed="random">
        <route edges="edge1 edge2"/>
    </vehicle>
    <vehicle id="60" type="passenger" depart="59.81" departLane="random" departPos="base" departSpeed="random">
        <route edges="edge1 edge4"/>
    </vehicle>
    <vehicle id="115" type="passenger" depart="59.97" departLane="random" departPos="base" departSpeed="random">
        <route edges="edge1 edge3"/>
    </vehicle>
    <vehicle id="61" type="passenger" depart="61.03" departLane="random" departPos="base" departSpeed="random">
        <route edges="edge1 edge4"/>
    </vehicle>
    <vehicle id="116" type="passenger" depart="61.91" departLane="random" departPos="base" departSpeed="random">
        <route edges="edge1 edge3"/>
    </vehicle>
    <vehicle id="15" type="passenger" depart="62.05" departLane="random" departPos="base" departSpeed="random">
        <route edges="edge1 edge2"/>
    </vehicle>
    <vehicle id="117" type="passenger" depart="63.10" departLane="random" departPos="base" departSpeed="random">
        <route edges="edge1 edge3"/>
    </vehicle>
    <vehicle id="62" type="passenger" depart="63.12" departLane="random" departPos="base" departSpeed="random">
        <route edges="edge1 edge4"/>
    </vehicle>
    <vehicle id="118" type="passenger" depart="70.39" departLane="random" departPos="base" departSpeed="random">
        <route edges="edge1 edge3"/>
    </vehicle>
    <vehicle id="119" type="passenger" depart="73.17" departLane="random" departPos="base" departSpeed="random">
        <route edges="edge1 edge3"/>
    </vehicle>
    <vehicle id="63" type="passenger" depart="73.72" departLane="random" departPos="base" departSpeed="random">
        <route edges="edge1 edge4"/>
    </vehicle>
    <vehicle id="64" type="passenger" depart="74.32" departLane="random" departPos="base" departSpeed="random">
        <route edges="edge1 edge4"/>
    </vehicle>
    <vehicle id="120" type="passenger" depart="76.05" departLane="random" departPos="base" departSpeed="random">
        <route edges="edge1 edge3"/>
    </vehicle>
    <vehicle id="65" type="passenger" depart="77.94" departLane="random" departPos="base" departSpeed="random">
        <route edges="edge1 edge4"/>
    </vehicle>
    <vehicle id="66" type="passenger" depart="78.65" departLane="random" departPos="base" departSpeed="random">
        <route edges="edge1 edge4"/>
    </vehicle>
    <vehicle id="67" type="passenger" depart="78.69" departLane="random" departPos="base" departSpeed="random">
        <route edges="edge1 edge4"/>
    </vehicle>
    <vehicle id="121" type="passenger" depart="79.75" departLane="random" departPos="base" departSpeed="random">
        <route edges="edge1 edge3"/>
    </vehicle>
    <vehicle id="68" type="passenger" depart="81.34" departLane="random" departPos="base" departSpeed="random">
        <route edges="edge1 edge4"/>
    </vehicle>
    <vehicle id="69" type="passenger" depart="84.56" departLane="random" departPos="base" departSpeed="random">
        <route edges="edge1 edge4"/>
    </vehicle>
    <vehicle id="70" type="passenger" depart="86.00" departLane="random" departPos="base" departSpeed="random">
        <route edges="edge1 edge4"/>
    </vehicle>
    <vehicle id="16" type="passenger" depart="86.99" departLane="random" departPos="base" departSpeed="random">
        <route edges="edge1 edge2"/>
    </vehicle>
    <vehicle id="17" type="passenger" depart="89.12" departLane="random" departPos="base" departSpeed="random">
        <route edges="edge1 edge2"/>
    </vehicle>
    <vehicle id="122" type="passenger" depart="89.44" departLane="random" departPos="base" departSpeed="random">
        <route edges="edge1 edge3"/>
    </vehicle>
    <vehicle id="18" type="passenger" depart="97.18" departLane="random" departPos="base" departSpeed="random">
        <route edges="edge1 edge2"/>
    </vehicle>
    <vehicle id="19" type="passenger" depart="98.70" departLane="random" departPos="base" departSpeed="random">
        <route edges="edge1 edge2"/>
    </vehicle>
    <vehicle id="123" type="passenger" depart="99.61" departLane="random" departPos="base" departSpeed="random">
        <route edges="edge1 edge3"/>
    </vehicle>
    <vehicle id="20" type="passenger" depart="103.30" departLane="random" departPos="base" departSpeed="random">
        <route edges="edge1 edge2"/>
    </vehicle>
    <vehicle id="71" type="passenger" depart="103.59" departLane="random" departPos="base" departSpeed="random">
        <route edges="edge1 edge4"/>
    </vehicle>
    <vehicle id="72" type="passenger" depart="105.21" departLane="random" departPos="base" departSpeed="random">
        <route edges="edge1 edge4"/>
    </vehicle>
    <vehicle id="73" type="passenger" depart="105.29" departLane="random" departPos="base" departSpeed="random">
        <route edges="edge1 edge4"/>
    </vehicle>
    <vehicle id="74" type="passenger" depart="105.64" departLane="random" departPos="base" departSpeed="random">
        <route edges="edge1 edge4"/>
    </vehicle>
    <vehicle id="21" type="passenger" depart="105.79" departLane="random" departPos="base" departSpeed="random">
        <route edges="edge1 edge2"/>
    </vehicle>
    <vehicle id="124" type="passenger" depart="116.86" departLane="random" departPos="base" departSpeed="random">
        <route edges="edge1 edge3"/>
    </vehicle>
    <vehicle id="75" type="passenger" depart="118.16" departLane="random" departPos="base" departSpeed="random">
        <route edges="edge1 edge4"/>
    </vehicle>
    <vehicle id="125" type="passenger" depart="119.07" departLane="random" departPos="base" departSpeed="random">
        <route edges="edge1 edge3"/>
    </vehicle>
    <vehicle id="22" type="passenger" depart="123.46" departLane="random" departPos="base" departSpeed="random">
        <route edges="edge1 edge2"/>
    </vehicle>
    <vehicle id="23" type="passenger" depart="123.71" departLane="random" departPos="base" departSpeed="random">
        <route edges="edge1 edge2"/>
    </vehicle>
    <vehicle id="24" type="passenger" depart="124.20" departLane="random" departPos="base" departSpeed="random">
        <route edges="edge1 edge2"/>
    </vehicle>
    <vehicle id="126" type="passenger" depart="126.39" departLane="random" departPos="base" departSpeed="random">
        <route edges="edge1 edge3"/>
    </vehicle>
    <vehicle id="127" type="passenger" depart="128.42" departLane="random" departPos="base" departSpeed="random">
        <route edges="edge1 edge3"/>
    </vehicle>
    <vehicle id="128" type="passenger" depart="129.91" departLane="random" departPos="base" departSpeed="random">
        <route edges="edge1 edge3"/>
    </vehicle>
    <vehicle id="76" type="passenger" depart="133.40" departLane="random" departPos="base" departSpeed="random">
        <route edges="edge1 edge4"/>
    </vehicle>
    <vehicle id="77" type="passenger" depart="135.51" departLane="random" departPos="base" departSpeed="random">
        <route edges="edge1 edge4"/>
    </vehicle>
    <vehicle id="129" type="passenger" depart="135.69" departLane="random" departPos="base" departSpeed="random">
        <route edges="edge1 edge3"/>
    </vehicle>
    <vehicle id="25" type="passenger" depart="138.37" departLane="random" departPos="base" departSpeed="random">
        <route edges="edge1 edge2"/>
    </vehicle>
    <vehicle id="26" type="passenger" depart="139.51" departLane="random" departPos="base" departSpeed="random">
        <route edges="edge1 edge2"/>
    </vehicle>
    <vehicle id="130" type="passenger" depart="139.96" departLane="random" departPos="base" departSpeed="random">
        <route edges="edge1 edge3"/>
    </vehicle>
    <vehicle id="131" type="passenger" depart="140.27" departLane="random" departPos="base" departSpeed="random">
        <route edges="edge1 edge3"/>
    </vehicle>
    <vehicle id="27" type="passenger" depart="140.39" departLane="random" departPos="base" departSpeed="random">
        <route edges="edge1 edge2"/>
    </vehicle>
    <vehicle id="78" type="passenger" depart="140.62" departLane="random" departPos="base" departSpeed="random">
        <route edges="edge1 edge4"/>
    </vehicle>
    <vehicle id="28" type="passenger" depart="140.82" departLane="random" departPos="base" departSpeed="random">
        <route edges="edge1 edge2"/>
    </vehicle>
    <vehicle id="132" type="passenger" depart="141.54" departLane="random" departPos="base" departSpeed="random">
        <route edges="edge1 edge3"/>
    </vehicle>
    <vehicle id="79" type="passenger" depart="142.04" departLane="random" departPos="base" departSpeed="random">
        <route edges="edge1 edge4"/>
    </vehicle>
    <vehicle id="133" type="passenger" depart="149.88" departLane="random" departPos="base" departSpeed="random">
        <route edges="edge1 edge3"/>
    </vehicle>
    <vehicle id="134" type="passenger" depart="150.56" departLane="random" departPos="base" departSpeed="random">
        <route edges="edge1 edge3"/>
    </vehicle>
    <vehicle id="29" type="passenger" depart="151.41" departLane="random" departPos="base" departSpeed="random">
        <route edges="edge1 edge2"/>
    </vehicle>
    <vehicle id="30" type="passenger" depart="152.24" departLane="random" departPos="base" departSpeed="random">
        <route edges="edge1 edge2"/>
    </vehicle>
    <vehicle id="31" type="passenger" depart="152.49" departLane="random" departPos="base" departSpeed="random">
        <route edges="edge1 edge2"/>
    </vehicle>
    <vehicle id="80" type="passenger" depart="155.52" departLane="random" departPos="base" departSpeed="random">
        <route edges="edge1 edge4"/>
    </vehicle>
    <vehicle id="32" type="passenger" depart="155.79" departLane="random" departPos="base" departSpeed="random">
        <route edges="edge1 edge2"/>
    </vehicle>
    <vehicle id="33" type="passenger" depart="158.98" departLane="random" departPos="base" departSpeed="random">
        <route edges="edge1 edge2"/>
    </vehicle>
    <vehicle id="34" type="passenger" depart="159.79" departLane="random" departPos="base" departSpeed="random">
        <route edges="edge1 edge2"/>
    </vehicle>
    <vehicle id="35" type="passenger" depart="161.90" departLane="random" departPos="base" departSpeed="random">
        <route edges="edge1 edge2"/>
    </vehicle>
    <vehicle id="135" type="passenger" depart="166.22" departLane="random" departPos="base" departSpeed="random">
        <route edges="edge1 edge3"/>
    </vehicle>
    <vehicle id="81" type="passenger" depart="168.74" departLane="random" departPos="base" departSpeed="random">
        <route edges="edge1 edge4"/>
    </vehicle>
    <vehicle id="136" type="passenger" depart="169.41" departLane="random" departPos="base" departSpeed="random">
        <route edges="edge1 edge3"/>
    </vehicle>
    <vehicle id="36" type="passenger" depart="175.70" departLane="random" departPos="base" departSpeed="random">
        <route edges="edge1 edge2"/>
    </vehicle>
    <vehicle id="137" type="passenger" depart="176.75" departLane="random" departPos="base" departSpeed="random">
        <route edges="edge1 edge3"/>
    </vehicle>
    <vehicle id="138" type="passenger" depart="177.97" departLane="random" departPos="base" departSpeed="random">
        <route edges="edge1 edge3"/>
    </vehicle>
    <vehicle id="37" type="passenger" depart="178.89" departLane="random" departPos="base" departSpeed="random">
        <route edges="edge1 edge2"/>
    </vehicle>
    <vehicle id="82" type="passenger" depart="180.49" departLane="random" departPos="base" departSpeed="random">
        <route edges="edge1 edge4"/>
    </vehicle>
    <vehicle id="83" type="passenger" depart="181.33" departLane="random" departPos="base" departSpeed="random">
        <route edges="edge1 edge4"/>
    </vehicle>
    <vehicle id="139" type="passenger" depart="181.47" departLane="random" departPos="base" departSpeed="random">
        <route edges="edge1 edge3"/>
    </vehicle>
    <vehicle id="140" type="passenger" depart="188.55" departLane="random" departPos="base" departSpeed="random">
        <route edges="edge1 edge3"/>
    </vehicle>
    <vehicle id="141" type="passenger" depart="189.44" departLane="random" departPos="base" departSpeed="random">
        <route edges="edge1 edge3"/>
    </vehicle>
    <vehicle id="84" type="passenger" depart="190.64" departLane="random" departPos="base" departSpeed="random">
        <route edges="edge1 edge4"/>
    </vehicle>
    <vehicle id="85" type="passenger" depart="190.81" departLane="random" departPos="base" departSpeed="random">
        <route edges="edge1 edge4"/>
    </vehicle>
    <vehicle id="86" type="passenger" depart="191.75" departLane="random" departPos="base" departSpeed="random">
        <route edges="edge1 edge4"/>
    </vehicle>
    <vehicle id="38" type="passenger" depart="193.59" departLane="random" departPos="base" departSpeed="random">
        <route edges="edge1 edge2"/>
    </vehicle>
    <vehicle id="87" type="passenger" depart="194.64" departLane="random" departPos="base" departSpeed="random">
        <route edges="edge1 edge4"/>
    </vehicle>
    <vehicle id="39" type="passenger" depart="195.40" departLane="random" departPos="base" departSpeed="random">
        <route edges="edge1 edge2"/>
    </vehicle>
    <vehicle id="40" type="passenger" depart="195.43" departLane="random" departPos="base" departSpeed="random">
        <route edges="edge1 edge2"/>
    </vehicle>
    <vehicle id="88" type="passenger" depart="197.17" departLane="random" departPos="base" departSpeed="random">
        <route edges="edge1 edge4"/>
    </vehicle>
    <vehicle id="41" type="passenger" depart="198.68" departLane="random" departPos="base" departSpeed="random">
        <route edges="edge1 edge2"/>
    </vehicle>
    <vehicle id="142" type="passenger" depart="199.35" departLane="random" departPos="base" departSpeed="random">
        <route edges="edge1 edge3"/>
    </vehicle>
    <vehicle id="143" type="passenger" depart="201.72" departLane="random" departPos="base" departSpeed="random">
        <route edges="edge1 edge3"/>
    </vehicle>
    <vehicle id="144" type="passenger" depart="203.38" departLane="random" departPos="base" departSpeed="random">
        <route edges="edge1 edge3"/>
    </vehicle>
    <vehicle id="89" type="passenger" depart="204.28" departLane="random" departPos="base" departSpeed="random">
        <route edges="edge1 edge4"/>
    </vehicle>
    <vehicle id="145" type="passenger" depart="210.11" departLane="random" departPos="base" departSpeed="random">
        <route edges="edge1 edge3"/>
    </vehicle>
    <vehicle id="42" type="passenger" depart="210.35" departLane="random" departPos="base" departSpeed="random">
        <route edges="edge1 edge2"/>
    </vehicle>
    <vehicle id="146" type="passenger" depart="211.40" departLane="random" departPos="base" departSpeed="random">
        <route edges="edge1 edge3"/>
    </vehicle>
    <vehicle id="43" type="passenger" depart="213.62" departLane="random" departPos="base" departSpeed="random">
        <route edges="edge1 edge2"/>
    </vehicle>
    <vehicle id="44" type="passenger" depart="213.99" departLane="random" departPos="base" departSpeed="random">
        <route edges="edge1 edge2"/>
    </vehicle>
    <vehicle id="90" type="passenger" depart="214.34" departLane="random" departPos="base" departSpeed="random">
        <route edges="edge1 edge4"/>
    </vehicle>
    <vehicle id="91" type="passenger" depart="219.76" departLane="random" departPos="base" departSpeed="random">
        <route edges="edge1 edge4"/>
    </vehicle>
    <vehicle id="92" type="passenger" depart="224.12" departLane="random" departPos="base" departSpeed="random">
        <route edges="edge1 edge4"/>
    </vehicle>
    <vehicle id="45" type="passenger" depart="226.75" departLane="random" departPos="base" departSpeed="random">
        <route edges="edge1 edge2"/>
    </vehicle>
    <vehicle id="93" type="passenger" depart="228.24" departLane="random" departPos="base" departSpeed="random">
        <route edges="edge1 edge4"/>
    </vehicle>
    <vehicle id="94" type="passenger" depart="228.59" departLane="random" departPos="base" departSpeed="random">
        <route edges="edge1 edge4"/>
    </vehicle>
    <vehicle id="147" type="passenger" depart="228.63" departLane="random" departPos="base" departSpeed="random">
        <route edges="edge1 edge3"/>
    </vehicle>
    <vehicle id="46" type="passenger" depart="229.13" departLane="random" departPos="base" departSpeed="random">
        <route edges="edge1 edge2"/>
    </vehicle>
    <vehicle id="95" type="passenger" depart="231.60" departLane="random" departPos="base" departSpeed="random">
        <route edges="edge1 edge4"/>
    </vehicle>
    <vehicle id="148" type="passenger" depart="232.06" departLane="random" departPos="base" departSpeed="random">
        <route edges="edge1 edge3"/>
    </vehicle>
    <vehicle id="96" type="passenger" depart="235.44" departLane="random" departPos="base" departSpeed="random">
        <route edges="edge1 edge4"/>
    </vehicle>
    <vehicle id="97" type="passenger" depart="238.98" departLane="random" departPos="base" departSpeed="random">
        <route edges="edge1 edge4"/>
    </vehicle>
    <vehicle id="47" type="passenger" depart="239.59" departLane="random" departPos="base" departSpeed="random">
        <route edges="edge1 edge2"/>
    </vehicle>
    <vehicle id="48" type="passenger" depart="240.12" departLane="random" departPos="base" departSpeed="random">
        <route edges="edge1 edge2"/>
    </vehicle>
    <vehicle id="149" type="passenger" depart="242.86" departLane="random" departPos="base" departSpeed="random">
        <route edges="edge1 edge3"/>
    </vehicle>
    <vehicle id="98" type="passenger" depart="244.00" departLane="random" departPos="base" departSpeed="random">
        <route edges="edge1 edge4"/>
    </vehicle>
    <vehicle id="99" type="passenger" depart="244.36" departLane="random" departPos="base" departSpeed="random">
        <route edges="edge1 edge4"/>
    </vehicle>
    <vehicle id="49" type="passenger" depart="245.70" departLane="random" departPos="base" departSpeed="random">
        <route edges="edge1 edge2"/>
    </vehicle>
</routes>
