<flows>   
<flow id="flow0" from="edgeD-2-1" to="edgeL-2-0" begin="0" end="2000"   
number="100" />   
<flow id="flow1" from="edgeD-2-1" to="edgeR-2-1" begin="0" end="2000"   
number="100" />  
<flow id="flow2" from="edgeD-2-1" to="edgeD-1-1" begin="0" end="2000"   
number="100" />  
<flow id="flow3" from="edgeR-2-0" to="edgeU-2-1" begin="0" end="2000"   
number="100" />  
<flow id="flow4" from="edgeR-2-0" to="edgeR-2-1" begin="0" end="2000"   
number="100" />  
<flow id="flow5" from="edgeR-2-0" to="edgeD-1-1" begin="0" end="2000"   
number="100" />  
<flow id="flow6" from="edgeU-1-1" to="edgeL-2-0" begin="0" end="2000"   
number="100" />  
<flow id="flow7" from="edgeU-1-1" to="edgeR-2-1" begin="0" end="2000"   
number="100" /> 
<flow id="flow8" from="edgeU-1-1" to="edgeU-2-1" begin="0" end="2000"   
number="100" /> 
<flow id="flow9" from="edgeU-1-1" to="edgeL-2-0" begin="0" end="2000"   
number="100" /> 
<flow id="flow10" from="edgeL-2-1" to="edgeU-2-1" begin="0" end="2000"   
number="100" /> 
<flow id="flow11" from="edgeL-2-1" to="edgeL-2-0" begin="0" end="2000"   
number="100" /> 
<flow id="flow12" from="edgeL-2-1" to="edgeD-1-1" begin="0" end="2000"   
number="100" /> 
</flows>
