<?xml version="1.0" encoding="UTF-8"?>

<!-- generated on Thu Feb 23 08:24:02 2017 by SUMO duarouter Version 0.25.0
<?xml version="1.0" encoding="UTF-8"?>

<configuration xmlns:xsi="http://www.w3.org/2001/XMLSchema-instance" xsi:noNamespaceSchemaLocation="http://sumo.dlr.de/xsd/duarouterConfiguration.xsd">

    <input>
        <net-file value="mySUMONet.net.xml"/>
        <flow-files value="ex_FLOW.flow.xml"/>
    </input>

    <output>
        <output-file value="ex_ROU.rou.xml"/>
    </output>

</configuration>
-->

<routes xmlns:xsi="http://www.w3.org/2001/XMLSchema-instance" xsi:noNamespaceSchemaLocation="http://sumo.dlr.de/xsd/routes_file.xsd">
    <vehicle id="flow0.0" depart="0.00">
        <route edges="edgeD-2-1 edgeL-2-0"/>
    </vehicle>
    <vehicle id="flow1.0" depart="0.00">
        <route edges="edgeD-2-1 edgeR-2-1"/>
    </vehicle>
    <vehicle id="flow10.0" depart="0.00">
        <route edges="edgeL-2-1 edgeU-2-1"/>
    </vehicle>
    <vehicle id="flow11.0" depart="0.00">
        <route edges="edgeL-2-1 edgeL-2-0"/>
    </vehicle>
    <vehicle id="flow12.0" depart="0.00">
        <route edges="edgeL-2-1 edgeD-1-1"/>
    </vehicle>
    <vehicle id="flow2.0" depart="0.00">
        <route edges="edgeD-2-1 edgeD-1-1"/>
    </vehicle>
    <vehicle id="flow3.0" depart="0.00">
        <route edges="edgeR-2-0 edgeU-2-1"/>
    </vehicle>
    <vehicle id="flow4.0" depart="0.00">
        <route edges="edgeR-2-0 edgeR-2-1"/>
    </vehicle>
    <vehicle id="flow5.0" depart="0.00">
        <route edges="edgeR-2-0 edgeD-1-1"/>
    </vehicle>
    <vehicle id="flow6.0" depart="0.00">
        <route edges="edgeU-1-1 edgeL-2-0"/>
    </vehicle>
    <vehicle id="flow7.0" depart="0.00">
        <route edges="edgeU-1-1 edgeR-2-1"/>
    </vehicle>
    <vehicle id="flow8.0" depart="0.00">
        <route edges="edgeU-1-1 edgeU-2-1"/>
    </vehicle>
    <vehicle id="flow9.0" depart="0.00">
        <route edges="edgeU-1-1 edgeL-2-0"/>
    </vehicle>
    <vehicle id="flow0.1" depart="20.00">
        <route edges="edgeD-2-1 edgeL-2-0"/>
    </vehicle>
    <vehicle id="flow1.1" depart="20.00">
        <route edges="edgeD-2-1 edgeR-2-1"/>
    </vehicle>
    <vehicle id="flow10.1" depart="20.00">
        <route edges="edgeL-2-1 edgeU-2-1"/>
    </vehicle>
    <vehicle id="flow11.1" depart="20.00">
        <route edges="edgeL-2-1 edgeL-2-0"/>
    </vehicle>
    <vehicle id="flow12.1" depart="20.00">
        <route edges="edgeL-2-1 edgeD-1-1"/>
    </vehicle>
    <vehicle id="flow2.1" depart="20.00">
        <route edges="edgeD-2-1 edgeD-1-1"/>
    </vehicle>
    <vehicle id="flow3.1" depart="20.00">
        <route edges="edgeR-2-0 edgeU-2-1"/>
    </vehicle>
    <vehicle id="flow4.1" depart="20.00">
        <route edges="edgeR-2-0 edgeR-2-1"/>
    </vehicle>
    <vehicle id="flow5.1" depart="20.00">
        <route edges="edgeR-2-0 edgeD-1-1"/>
    </vehicle>
    <vehicle id="flow6.1" depart="20.00">
        <route edges="edgeU-1-1 edgeL-2-0"/>
    </vehicle>
    <vehicle id="flow7.1" depart="20.00">
        <route edges="edgeU-1-1 edgeR-2-1"/>
    </vehicle>
    <vehicle id="flow8.1" depart="20.00">
        <route edges="edgeU-1-1 edgeU-2-1"/>
    </vehicle>
    <vehicle id="flow9.1" depart="20.00">
        <route edges="edgeU-1-1 edgeL-2-0"/>
    </vehicle>
    <vehicle id="flow0.2" depart="40.00">
        <route edges="edgeD-2-1 edgeL-2-0"/>
    </vehicle>
    <vehicle id="flow1.2" depart="40.00">
        <route edges="edgeD-2-1 edgeR-2-1"/>
    </vehicle>
    <vehicle id="flow10.2" depart="40.00">
        <route edges="edgeL-2-1 edgeU-2-1"/>
    </vehicle>
    <vehicle id="flow11.2" depart="40.00">
        <route edges="edgeL-2-1 edgeL-2-0"/>
    </vehicle>
    <vehicle id="flow12.2" depart="40.00">
        <route edges="edgeL-2-1 edgeD-1-1"/>
    </vehicle>
    <vehicle id="flow2.2" depart="40.00">
        <route edges="edgeD-2-1 edgeD-1-1"/>
    </vehicle>
    <vehicle id="flow3.2" depart="40.00">
        <route edges="edgeR-2-0 edgeU-2-1"/>
    </vehicle>
    <vehicle id="flow4.2" depart="40.00">
        <route edges="edgeR-2-0 edgeR-2-1"/>
    </vehicle>
    <vehicle id="flow5.2" depart="40.00">
        <route edges="edgeR-2-0 edgeD-1-1"/>
    </vehicle>
    <vehicle id="flow6.2" depart="40.00">
        <route edges="edgeU-1-1 edgeL-2-0"/>
    </vehicle>
    <vehicle id="flow7.2" depart="40.00">
        <route edges="edgeU-1-1 edgeR-2-1"/>
    </vehicle>
    <vehicle id="flow8.2" depart="40.00">
        <route edges="edgeU-1-1 edgeU-2-1"/>
    </vehicle>
    <vehicle id="flow9.2" depart="40.00">
        <route edges="edgeU-1-1 edgeL-2-0"/>
    </vehicle>
    <vehicle id="flow0.3" depart="60.00">
        <route edges="edgeD-2-1 edgeL-2-0"/>
    </vehicle>
    <vehicle id="flow1.3" depart="60.00">
        <route edges="edgeD-2-1 edgeR-2-1"/>
    </vehicle>
    <vehicle id="flow10.3" depart="60.00">
        <route edges="edgeL-2-1 edgeU-2-1"/>
    </vehicle>
    <vehicle id="flow11.3" depart="60.00">
        <route edges="edgeL-2-1 edgeL-2-0"/>
    </vehicle>
    <vehicle id="flow12.3" depart="60.00">
        <route edges="edgeL-2-1 edgeD-1-1"/>
    </vehicle>
    <vehicle id="flow2.3" depart="60.00">
        <route edges="edgeD-2-1 edgeD-1-1"/>
    </vehicle>
    <vehicle id="flow3.3" depart="60.00">
        <route edges="edgeR-2-0 edgeU-2-1"/>
    </vehicle>
    <vehicle id="flow4.3" depart="60.00">
        <route edges="edgeR-2-0 edgeR-2-1"/>
    </vehicle>
    <vehicle id="flow5.3" depart="60.00">
        <route edges="edgeR-2-0 edgeD-1-1"/>
    </vehicle>
    <vehicle id="flow6.3" depart="60.00">
        <route edges="edgeU-1-1 edgeL-2-0"/>
    </vehicle>
    <vehicle id="flow7.3" depart="60.00">
        <route edges="edgeU-1-1 edgeR-2-1"/>
    </vehicle>
    <vehicle id="flow8.3" depart="60.00">
        <route edges="edgeU-1-1 edgeU-2-1"/>
    </vehicle>
    <vehicle id="flow9.3" depart="60.00">
        <route edges="edgeU-1-1 edgeL-2-0"/>
    </vehicle>
    <vehicle id="flow0.4" depart="80.00">
        <route edges="edgeD-2-1 edgeL-2-0"/>
    </vehicle>
    <vehicle id="flow1.4" depart="80.00">
        <route edges="edgeD-2-1 edgeR-2-1"/>
    </vehicle>
    <vehicle id="flow10.4" depart="80.00">
        <route edges="edgeL-2-1 edgeU-2-1"/>
    </vehicle>
    <vehicle id="flow11.4" depart="80.00">
        <route edges="edgeL-2-1 edgeL-2-0"/>
    </vehicle>
    <vehicle id="flow12.4" depart="80.00">
        <route edges="edgeL-2-1 edgeD-1-1"/>
    </vehicle>
    <vehicle id="flow2.4" depart="80.00">
        <route edges="edgeD-2-1 edgeD-1-1"/>
    </vehicle>
    <vehicle id="flow3.4" depart="80.00">
        <route edges="edgeR-2-0 edgeU-2-1"/>
    </vehicle>
    <vehicle id="flow4.4" depart="80.00">
        <route edges="edgeR-2-0 edgeR-2-1"/>
    </vehicle>
    <vehicle id="flow5.4" depart="80.00">
        <route edges="edgeR-2-0 edgeD-1-1"/>
    </vehicle>
    <vehicle id="flow6.4" depart="80.00">
        <route edges="edgeU-1-1 edgeL-2-0"/>
    </vehicle>
    <vehicle id="flow7.4" depart="80.00">
        <route edges="edgeU-1-1 edgeR-2-1"/>
    </vehicle>
    <vehicle id="flow8.4" depart="80.00">
        <route edges="edgeU-1-1 edgeU-2-1"/>
    </vehicle>
    <vehicle id="flow9.4" depart="80.00">
        <route edges="edgeU-1-1 edgeL-2-0"/>
    </vehicle>
    <vehicle id="flow0.5" depart="100.00">
        <route edges="edgeD-2-1 edgeL-2-0"/>
    </vehicle>
    <vehicle id="flow1.5" depart="100.00">
        <route edges="edgeD-2-1 edgeR-2-1"/>
    </vehicle>
    <vehicle id="flow10.5" depart="100.00">
        <route edges="edgeL-2-1 edgeU-2-1"/>
    </vehicle>
    <vehicle id="flow11.5" depart="100.00">
        <route edges="edgeL-2-1 edgeL-2-0"/>
    </vehicle>
    <vehicle id="flow12.5" depart="100.00">
        <route edges="edgeL-2-1 edgeD-1-1"/>
    </vehicle>
    <vehicle id="flow2.5" depart="100.00">
        <route edges="edgeD-2-1 edgeD-1-1"/>
    </vehicle>
    <vehicle id="flow3.5" depart="100.00">
        <route edges="edgeR-2-0 edgeU-2-1"/>
    </vehicle>
    <vehicle id="flow4.5" depart="100.00">
        <route edges="edgeR-2-0 edgeR-2-1"/>
    </vehicle>
    <vehicle id="flow5.5" depart="100.00">
        <route edges="edgeR-2-0 edgeD-1-1"/>
    </vehicle>
    <vehicle id="flow6.5" depart="100.00">
        <route edges="edgeU-1-1 edgeL-2-0"/>
    </vehicle>
    <vehicle id="flow7.5" depart="100.00">
        <route edges="edgeU-1-1 edgeR-2-1"/>
    </vehicle>
    <vehicle id="flow8.5" depart="100.00">
        <route edges="edgeU-1-1 edgeU-2-1"/>
    </vehicle>
    <vehicle id="flow9.5" depart="100.00">
        <route edges="edgeU-1-1 edgeL-2-0"/>
    </vehicle>
    <vehicle id="flow0.6" depart="120.00">
        <route edges="edgeD-2-1 edgeL-2-0"/>
    </vehicle>
    <vehicle id="flow1.6" depart="120.00">
        <route edges="edgeD-2-1 edgeR-2-1"/>
    </vehicle>
    <vehicle id="flow10.6" depart="120.00">
        <route edges="edgeL-2-1 edgeU-2-1"/>
    </vehicle>
    <vehicle id="flow11.6" depart="120.00">
        <route edges="edgeL-2-1 edgeL-2-0"/>
    </vehicle>
    <vehicle id="flow12.6" depart="120.00">
        <route edges="edgeL-2-1 edgeD-1-1"/>
    </vehicle>
    <vehicle id="flow2.6" depart="120.00">
        <route edges="edgeD-2-1 edgeD-1-1"/>
    </vehicle>
    <vehicle id="flow3.6" depart="120.00">
        <route edges="edgeR-2-0 edgeU-2-1"/>
    </vehicle>
    <vehicle id="flow4.6" depart="120.00">
        <route edges="edgeR-2-0 edgeR-2-1"/>
    </vehicle>
    <vehicle id="flow5.6" depart="120.00">
        <route edges="edgeR-2-0 edgeD-1-1"/>
    </vehicle>
    <vehicle id="flow6.6" depart="120.00">
        <route edges="edgeU-1-1 edgeL-2-0"/>
    </vehicle>
    <vehicle id="flow7.6" depart="120.00">
        <route edges="edgeU-1-1 edgeR-2-1"/>
    </vehicle>
    <vehicle id="flow8.6" depart="120.00">
        <route edges="edgeU-1-1 edgeU-2-1"/>
    </vehicle>
    <vehicle id="flow9.6" depart="120.00">
        <route edges="edgeU-1-1 edgeL-2-0"/>
    </vehicle>
    <vehicle id="flow0.7" depart="140.00">
        <route edges="edgeD-2-1 edgeL-2-0"/>
    </vehicle>
    <vehicle id="flow1.7" depart="140.00">
        <route edges="edgeD-2-1 edgeR-2-1"/>
    </vehicle>
    <vehicle id="flow10.7" depart="140.00">
        <route edges="edgeL-2-1 edgeU-2-1"/>
    </vehicle>
    <vehicle id="flow11.7" depart="140.00">
        <route edges="edgeL-2-1 edgeL-2-0"/>
    </vehicle>
    <vehicle id="flow12.7" depart="140.00">
        <route edges="edgeL-2-1 edgeD-1-1"/>
    </vehicle>
    <vehicle id="flow2.7" depart="140.00">
        <route edges="edgeD-2-1 edgeD-1-1"/>
    </vehicle>
    <vehicle id="flow3.7" depart="140.00">
        <route edges="edgeR-2-0 edgeU-2-1"/>
    </vehicle>
    <vehicle id="flow4.7" depart="140.00">
        <route edges="edgeR-2-0 edgeR-2-1"/>
    </vehicle>
    <vehicle id="flow5.7" depart="140.00">
        <route edges="edgeR-2-0 edgeD-1-1"/>
    </vehicle>
    <vehicle id="flow6.7" depart="140.00">
        <route edges="edgeU-1-1 edgeL-2-0"/>
    </vehicle>
    <vehicle id="flow7.7" depart="140.00">
        <route edges="edgeU-1-1 edgeR-2-1"/>
    </vehicle>
    <vehicle id="flow8.7" depart="140.00">
        <route edges="edgeU-1-1 edgeU-2-1"/>
    </vehicle>
    <vehicle id="flow9.7" depart="140.00">
        <route edges="edgeU-1-1 edgeL-2-0"/>
    </vehicle>
    <vehicle id="flow0.8" depart="160.00">
        <route edges="edgeD-2-1 edgeL-2-0"/>
    </vehicle>
    <vehicle id="flow1.8" depart="160.00">
        <route edges="edgeD-2-1 edgeR-2-1"/>
    </vehicle>
    <vehicle id="flow10.8" depart="160.00">
        <route edges="edgeL-2-1 edgeU-2-1"/>
    </vehicle>
    <vehicle id="flow11.8" depart="160.00">
        <route edges="edgeL-2-1 edgeL-2-0"/>
    </vehicle>
    <vehicle id="flow12.8" depart="160.00">
        <route edges="edgeL-2-1 edgeD-1-1"/>
    </vehicle>
    <vehicle id="flow2.8" depart="160.00">
        <route edges="edgeD-2-1 edgeD-1-1"/>
    </vehicle>
    <vehicle id="flow3.8" depart="160.00">
        <route edges="edgeR-2-0 edgeU-2-1"/>
    </vehicle>
    <vehicle id="flow4.8" depart="160.00">
        <route edges="edgeR-2-0 edgeR-2-1"/>
    </vehicle>
    <vehicle id="flow5.8" depart="160.00">
        <route edges="edgeR-2-0 edgeD-1-1"/>
    </vehicle>
    <vehicle id="flow6.8" depart="160.00">
        <route edges="edgeU-1-1 edgeL-2-0"/>
    </vehicle>
    <vehicle id="flow7.8" depart="160.00">
        <route edges="edgeU-1-1 edgeR-2-1"/>
    </vehicle>
    <vehicle id="flow8.8" depart="160.00">
        <route edges="edgeU-1-1 edgeU-2-1"/>
    </vehicle>
    <vehicle id="flow9.8" depart="160.00">
        <route edges="edgeU-1-1 edgeL-2-0"/>
    </vehicle>
    <vehicle id="flow0.9" depart="180.00">
        <route edges="edgeD-2-1 edgeL-2-0"/>
    </vehicle>
    <vehicle id="flow1.9" depart="180.00">
        <route edges="edgeD-2-1 edgeR-2-1"/>
    </vehicle>
    <vehicle id="flow10.9" depart="180.00">
        <route edges="edgeL-2-1 edgeU-2-1"/>
    </vehicle>
    <vehicle id="flow11.9" depart="180.00">
        <route edges="edgeL-2-1 edgeL-2-0"/>
    </vehicle>
    <vehicle id="flow12.9" depart="180.00">
        <route edges="edgeL-2-1 edgeD-1-1"/>
    </vehicle>
    <vehicle id="flow2.9" depart="180.00">
        <route edges="edgeD-2-1 edgeD-1-1"/>
    </vehicle>
    <vehicle id="flow3.9" depart="180.00">
        <route edges="edgeR-2-0 edgeU-2-1"/>
    </vehicle>
    <vehicle id="flow4.9" depart="180.00">
        <route edges="edgeR-2-0 edgeR-2-1"/>
    </vehicle>
    <vehicle id="flow5.9" depart="180.00">
        <route edges="edgeR-2-0 edgeD-1-1"/>
    </vehicle>
    <vehicle id="flow6.9" depart="180.00">
        <route edges="edgeU-1-1 edgeL-2-0"/>
    </vehicle>
    <vehicle id="flow7.9" depart="180.00">
        <route edges="edgeU-1-1 edgeR-2-1"/>
    </vehicle>
    <vehicle id="flow8.9" depart="180.00">
        <route edges="edgeU-1-1 edgeU-2-1"/>
    </vehicle>
    <vehicle id="flow9.9" depart="180.00">
        <route edges="edgeU-1-1 edgeL-2-0"/>
    </vehicle>
    <vehicle id="flow0.10" depart="200.00">
        <route edges="edgeD-2-1 edgeL-2-0"/>
    </vehicle>
    <vehicle id="flow1.10" depart="200.00">
        <route edges="edgeD-2-1 edgeR-2-1"/>
    </vehicle>
    <vehicle id="flow10.10" depart="200.00">
        <route edges="edgeL-2-1 edgeU-2-1"/>
    </vehicle>
    <vehicle id="flow11.10" depart="200.00">
        <route edges="edgeL-2-1 edgeL-2-0"/>
    </vehicle>
    <vehicle id="flow12.10" depart="200.00">
        <route edges="edgeL-2-1 edgeD-1-1"/>
    </vehicle>
    <vehicle id="flow2.10" depart="200.00">
        <route edges="edgeD-2-1 edgeD-1-1"/>
    </vehicle>
    <vehicle id="flow3.10" depart="200.00">
        <route edges="edgeR-2-0 edgeU-2-1"/>
    </vehicle>
    <vehicle id="flow4.10" depart="200.00">
        <route edges="edgeR-2-0 edgeR-2-1"/>
    </vehicle>
    <vehicle id="flow5.10" depart="200.00">
        <route edges="edgeR-2-0 edgeD-1-1"/>
    </vehicle>
    <vehicle id="flow6.10" depart="200.00">
        <route edges="edgeU-1-1 edgeL-2-0"/>
    </vehicle>
    <vehicle id="flow7.10" depart="200.00">
        <route edges="edgeU-1-1 edgeR-2-1"/>
    </vehicle>
    <vehicle id="flow8.10" depart="200.00">
        <route edges="edgeU-1-1 edgeU-2-1"/>
    </vehicle>
    <vehicle id="flow9.10" depart="200.00">
        <route edges="edgeU-1-1 edgeL-2-0"/>
    </vehicle>
    <vehicle id="flow0.11" depart="220.00">
        <route edges="edgeD-2-1 edgeL-2-0"/>
    </vehicle>
    <vehicle id="flow1.11" depart="220.00">
        <route edges="edgeD-2-1 edgeR-2-1"/>
    </vehicle>
    <vehicle id="flow10.11" depart="220.00">
        <route edges="edgeL-2-1 edgeU-2-1"/>
    </vehicle>
    <vehicle id="flow11.11" depart="220.00">
        <route edges="edgeL-2-1 edgeL-2-0"/>
    </vehicle>
    <vehicle id="flow12.11" depart="220.00">
        <route edges="edgeL-2-1 edgeD-1-1"/>
    </vehicle>
    <vehicle id="flow2.11" depart="220.00">
        <route edges="edgeD-2-1 edgeD-1-1"/>
    </vehicle>
    <vehicle id="flow3.11" depart="220.00">
        <route edges="edgeR-2-0 edgeU-2-1"/>
    </vehicle>
    <vehicle id="flow4.11" depart="220.00">
        <route edges="edgeR-2-0 edgeR-2-1"/>
    </vehicle>
    <vehicle id="flow5.11" depart="220.00">
        <route edges="edgeR-2-0 edgeD-1-1"/>
    </vehicle>
    <vehicle id="flow6.11" depart="220.00">
        <route edges="edgeU-1-1 edgeL-2-0"/>
    </vehicle>
    <vehicle id="flow7.11" depart="220.00">
        <route edges="edgeU-1-1 edgeR-2-1"/>
    </vehicle>
    <vehicle id="flow8.11" depart="220.00">
        <route edges="edgeU-1-1 edgeU-2-1"/>
    </vehicle>
    <vehicle id="flow9.11" depart="220.00">
        <route edges="edgeU-1-1 edgeL-2-0"/>
    </vehicle>
    <vehicle id="flow0.12" depart="240.00">
        <route edges="edgeD-2-1 edgeL-2-0"/>
    </vehicle>
    <vehicle id="flow1.12" depart="240.00">
        <route edges="edgeD-2-1 edgeR-2-1"/>
    </vehicle>
    <vehicle id="flow10.12" depart="240.00">
        <route edges="edgeL-2-1 edgeU-2-1"/>
    </vehicle>
    <vehicle id="flow11.12" depart="240.00">
        <route edges="edgeL-2-1 edgeL-2-0"/>
    </vehicle>
    <vehicle id="flow12.12" depart="240.00">
        <route edges="edgeL-2-1 edgeD-1-1"/>
    </vehicle>
    <vehicle id="flow2.12" depart="240.00">
        <route edges="edgeD-2-1 edgeD-1-1"/>
    </vehicle>
    <vehicle id="flow3.12" depart="240.00">
        <route edges="edgeR-2-0 edgeU-2-1"/>
    </vehicle>
    <vehicle id="flow4.12" depart="240.00">
        <route edges="edgeR-2-0 edgeR-2-1"/>
    </vehicle>
    <vehicle id="flow5.12" depart="240.00">
        <route edges="edgeR-2-0 edgeD-1-1"/>
    </vehicle>
    <vehicle id="flow6.12" depart="240.00">
        <route edges="edgeU-1-1 edgeL-2-0"/>
    </vehicle>
    <vehicle id="flow7.12" depart="240.00">
        <route edges="edgeU-1-1 edgeR-2-1"/>
    </vehicle>
    <vehicle id="flow8.12" depart="240.00">
        <route edges="edgeU-1-1 edgeU-2-1"/>
    </vehicle>
    <vehicle id="flow9.12" depart="240.00">
        <route edges="edgeU-1-1 edgeL-2-0"/>
    </vehicle>
    <vehicle id="flow0.13" depart="260.00">
        <route edges="edgeD-2-1 edgeL-2-0"/>
    </vehicle>
    <vehicle id="flow1.13" depart="260.00">
        <route edges="edgeD-2-1 edgeR-2-1"/>
    </vehicle>
    <vehicle id="flow10.13" depart="260.00">
        <route edges="edgeL-2-1 edgeU-2-1"/>
    </vehicle>
    <vehicle id="flow11.13" depart="260.00">
        <route edges="edgeL-2-1 edgeL-2-0"/>
    </vehicle>
    <vehicle id="flow12.13" depart="260.00">
        <route edges="edgeL-2-1 edgeD-1-1"/>
    </vehicle>
    <vehicle id="flow2.13" depart="260.00">
        <route edges="edgeD-2-1 edgeD-1-1"/>
    </vehicle>
    <vehicle id="flow3.13" depart="260.00">
        <route edges="edgeR-2-0 edgeU-2-1"/>
    </vehicle>
    <vehicle id="flow4.13" depart="260.00">
        <route edges="edgeR-2-0 edgeR-2-1"/>
    </vehicle>
    <vehicle id="flow5.13" depart="260.00">
        <route edges="edgeR-2-0 edgeD-1-1"/>
    </vehicle>
    <vehicle id="flow6.13" depart="260.00">
        <route edges="edgeU-1-1 edgeL-2-0"/>
    </vehicle>
    <vehicle id="flow7.13" depart="260.00">
        <route edges="edgeU-1-1 edgeR-2-1"/>
    </vehicle>
    <vehicle id="flow8.13" depart="260.00">
        <route edges="edgeU-1-1 edgeU-2-1"/>
    </vehicle>
    <vehicle id="flow9.13" depart="260.00">
        <route edges="edgeU-1-1 edgeL-2-0"/>
    </vehicle>
    <vehicle id="flow0.14" depart="280.00">
        <route edges="edgeD-2-1 edgeL-2-0"/>
    </vehicle>
    <vehicle id="flow1.14" depart="280.00">
        <route edges="edgeD-2-1 edgeR-2-1"/>
    </vehicle>
    <vehicle id="flow10.14" depart="280.00">
        <route edges="edgeL-2-1 edgeU-2-1"/>
    </vehicle>
    <vehicle id="flow11.14" depart="280.00">
        <route edges="edgeL-2-1 edgeL-2-0"/>
    </vehicle>
    <vehicle id="flow12.14" depart="280.00">
        <route edges="edgeL-2-1 edgeD-1-1"/>
    </vehicle>
    <vehicle id="flow2.14" depart="280.00">
        <route edges="edgeD-2-1 edgeD-1-1"/>
    </vehicle>
    <vehicle id="flow3.14" depart="280.00">
        <route edges="edgeR-2-0 edgeU-2-1"/>
    </vehicle>
    <vehicle id="flow4.14" depart="280.00">
        <route edges="edgeR-2-0 edgeR-2-1"/>
    </vehicle>
    <vehicle id="flow5.14" depart="280.00">
        <route edges="edgeR-2-0 edgeD-1-1"/>
    </vehicle>
    <vehicle id="flow6.14" depart="280.00">
        <route edges="edgeU-1-1 edgeL-2-0"/>
    </vehicle>
    <vehicle id="flow7.14" depart="280.00">
        <route edges="edgeU-1-1 edgeR-2-1"/>
    </vehicle>
    <vehicle id="flow8.14" depart="280.00">
        <route edges="edgeU-1-1 edgeU-2-1"/>
    </vehicle>
    <vehicle id="flow9.14" depart="280.00">
        <route edges="edgeU-1-1 edgeL-2-0"/>
    </vehicle>
    <vehicle id="flow0.15" depart="300.00">
        <route edges="edgeD-2-1 edgeL-2-0"/>
    </vehicle>
    <vehicle id="flow1.15" depart="300.00">
        <route edges="edgeD-2-1 edgeR-2-1"/>
    </vehicle>
    <vehicle id="flow10.15" depart="300.00">
        <route edges="edgeL-2-1 edgeU-2-1"/>
    </vehicle>
    <vehicle id="flow11.15" depart="300.00">
        <route edges="edgeL-2-1 edgeL-2-0"/>
    </vehicle>
    <vehicle id="flow12.15" depart="300.00">
        <route edges="edgeL-2-1 edgeD-1-1"/>
    </vehicle>
    <vehicle id="flow2.15" depart="300.00">
        <route edges="edgeD-2-1 edgeD-1-1"/>
    </vehicle>
    <vehicle id="flow3.15" depart="300.00">
        <route edges="edgeR-2-0 edgeU-2-1"/>
    </vehicle>
    <vehicle id="flow4.15" depart="300.00">
        <route edges="edgeR-2-0 edgeR-2-1"/>
    </vehicle>
    <vehicle id="flow5.15" depart="300.00">
        <route edges="edgeR-2-0 edgeD-1-1"/>
    </vehicle>
    <vehicle id="flow6.15" depart="300.00">
        <route edges="edgeU-1-1 edgeL-2-0"/>
    </vehicle>
    <vehicle id="flow7.15" depart="300.00">
        <route edges="edgeU-1-1 edgeR-2-1"/>
    </vehicle>
    <vehicle id="flow8.15" depart="300.00">
        <route edges="edgeU-1-1 edgeU-2-1"/>
    </vehicle>
    <vehicle id="flow9.15" depart="300.00">
        <route edges="edgeU-1-1 edgeL-2-0"/>
    </vehicle>
    <vehicle id="flow0.16" depart="320.00">
        <route edges="edgeD-2-1 edgeL-2-0"/>
    </vehicle>
    <vehicle id="flow1.16" depart="320.00">
        <route edges="edgeD-2-1 edgeR-2-1"/>
    </vehicle>
    <vehicle id="flow10.16" depart="320.00">
        <route edges="edgeL-2-1 edgeU-2-1"/>
    </vehicle>
    <vehicle id="flow11.16" depart="320.00">
        <route edges="edgeL-2-1 edgeL-2-0"/>
    </vehicle>
    <vehicle id="flow12.16" depart="320.00">
        <route edges="edgeL-2-1 edgeD-1-1"/>
    </vehicle>
    <vehicle id="flow2.16" depart="320.00">
        <route edges="edgeD-2-1 edgeD-1-1"/>
    </vehicle>
    <vehicle id="flow3.16" depart="320.00">
        <route edges="edgeR-2-0 edgeU-2-1"/>
    </vehicle>
    <vehicle id="flow4.16" depart="320.00">
        <route edges="edgeR-2-0 edgeR-2-1"/>
    </vehicle>
    <vehicle id="flow5.16" depart="320.00">
        <route edges="edgeR-2-0 edgeD-1-1"/>
    </vehicle>
    <vehicle id="flow6.16" depart="320.00">
        <route edges="edgeU-1-1 edgeL-2-0"/>
    </vehicle>
    <vehicle id="flow7.16" depart="320.00">
        <route edges="edgeU-1-1 edgeR-2-1"/>
    </vehicle>
    <vehicle id="flow8.16" depart="320.00">
        <route edges="edgeU-1-1 edgeU-2-1"/>
    </vehicle>
    <vehicle id="flow9.16" depart="320.00">
        <route edges="edgeU-1-1 edgeL-2-0"/>
    </vehicle>
    <vehicle id="flow0.17" depart="340.00">
        <route edges="edgeD-2-1 edgeL-2-0"/>
    </vehicle>
    <vehicle id="flow1.17" depart="340.00">
        <route edges="edgeD-2-1 edgeR-2-1"/>
    </vehicle>
    <vehicle id="flow10.17" depart="340.00">
        <route edges="edgeL-2-1 edgeU-2-1"/>
    </vehicle>
    <vehicle id="flow11.17" depart="340.00">
        <route edges="edgeL-2-1 edgeL-2-0"/>
    </vehicle>
    <vehicle id="flow12.17" depart="340.00">
        <route edges="edgeL-2-1 edgeD-1-1"/>
    </vehicle>
    <vehicle id="flow2.17" depart="340.00">
        <route edges="edgeD-2-1 edgeD-1-1"/>
    </vehicle>
    <vehicle id="flow3.17" depart="340.00">
        <route edges="edgeR-2-0 edgeU-2-1"/>
    </vehicle>
    <vehicle id="flow4.17" depart="340.00">
        <route edges="edgeR-2-0 edgeR-2-1"/>
    </vehicle>
    <vehicle id="flow5.17" depart="340.00">
        <route edges="edgeR-2-0 edgeD-1-1"/>
    </vehicle>
    <vehicle id="flow6.17" depart="340.00">
        <route edges="edgeU-1-1 edgeL-2-0"/>
    </vehicle>
    <vehicle id="flow7.17" depart="340.00">
        <route edges="edgeU-1-1 edgeR-2-1"/>
    </vehicle>
    <vehicle id="flow8.17" depart="340.00">
        <route edges="edgeU-1-1 edgeU-2-1"/>
    </vehicle>
    <vehicle id="flow9.17" depart="340.00">
        <route edges="edgeU-1-1 edgeL-2-0"/>
    </vehicle>
    <vehicle id="flow0.18" depart="360.00">
        <route edges="edgeD-2-1 edgeL-2-0"/>
    </vehicle>
    <vehicle id="flow1.18" depart="360.00">
        <route edges="edgeD-2-1 edgeR-2-1"/>
    </vehicle>
    <vehicle id="flow10.18" depart="360.00">
        <route edges="edgeL-2-1 edgeU-2-1"/>
    </vehicle>
    <vehicle id="flow11.18" depart="360.00">
        <route edges="edgeL-2-1 edgeL-2-0"/>
    </vehicle>
    <vehicle id="flow12.18" depart="360.00">
        <route edges="edgeL-2-1 edgeD-1-1"/>
    </vehicle>
    <vehicle id="flow2.18" depart="360.00">
        <route edges="edgeD-2-1 edgeD-1-1"/>
    </vehicle>
    <vehicle id="flow3.18" depart="360.00">
        <route edges="edgeR-2-0 edgeU-2-1"/>
    </vehicle>
    <vehicle id="flow4.18" depart="360.00">
        <route edges="edgeR-2-0 edgeR-2-1"/>
    </vehicle>
    <vehicle id="flow5.18" depart="360.00">
        <route edges="edgeR-2-0 edgeD-1-1"/>
    </vehicle>
    <vehicle id="flow6.18" depart="360.00">
        <route edges="edgeU-1-1 edgeL-2-0"/>
    </vehicle>
    <vehicle id="flow7.18" depart="360.00">
        <route edges="edgeU-1-1 edgeR-2-1"/>
    </vehicle>
    <vehicle id="flow8.18" depart="360.00">
        <route edges="edgeU-1-1 edgeU-2-1"/>
    </vehicle>
    <vehicle id="flow9.18" depart="360.00">
        <route edges="edgeU-1-1 edgeL-2-0"/>
    </vehicle>
    <vehicle id="flow0.19" depart="380.00">
        <route edges="edgeD-2-1 edgeL-2-0"/>
    </vehicle>
    <vehicle id="flow1.19" depart="380.00">
        <route edges="edgeD-2-1 edgeR-2-1"/>
    </vehicle>
    <vehicle id="flow10.19" depart="380.00">
        <route edges="edgeL-2-1 edgeU-2-1"/>
    </vehicle>
    <vehicle id="flow11.19" depart="380.00">
        <route edges="edgeL-2-1 edgeL-2-0"/>
    </vehicle>
    <vehicle id="flow12.19" depart="380.00">
        <route edges="edgeL-2-1 edgeD-1-1"/>
    </vehicle>
    <vehicle id="flow2.19" depart="380.00">
        <route edges="edgeD-2-1 edgeD-1-1"/>
    </vehicle>
    <vehicle id="flow3.19" depart="380.00">
        <route edges="edgeR-2-0 edgeU-2-1"/>
    </vehicle>
    <vehicle id="flow4.19" depart="380.00">
        <route edges="edgeR-2-0 edgeR-2-1"/>
    </vehicle>
    <vehicle id="flow5.19" depart="380.00">
        <route edges="edgeR-2-0 edgeD-1-1"/>
    </vehicle>
    <vehicle id="flow6.19" depart="380.00">
        <route edges="edgeU-1-1 edgeL-2-0"/>
    </vehicle>
    <vehicle id="flow7.19" depart="380.00">
        <route edges="edgeU-1-1 edgeR-2-1"/>
    </vehicle>
    <vehicle id="flow8.19" depart="380.00">
        <route edges="edgeU-1-1 edgeU-2-1"/>
    </vehicle>
    <vehicle id="flow9.19" depart="380.00">
        <route edges="edgeU-1-1 edgeL-2-0"/>
    </vehicle>
    <vehicle id="flow0.20" depart="400.00">
        <route edges="edgeD-2-1 edgeL-2-0"/>
    </vehicle>
    <vehicle id="flow1.20" depart="400.00">
        <route edges="edgeD-2-1 edgeR-2-1"/>
    </vehicle>
    <vehicle id="flow10.20" depart="400.00">
        <route edges="edgeL-2-1 edgeU-2-1"/>
    </vehicle>
    <vehicle id="flow11.20" depart="400.00">
        <route edges="edgeL-2-1 edgeL-2-0"/>
    </vehicle>
    <vehicle id="flow12.20" depart="400.00">
        <route edges="edgeL-2-1 edgeD-1-1"/>
    </vehicle>
    <vehicle id="flow2.20" depart="400.00">
        <route edges="edgeD-2-1 edgeD-1-1"/>
    </vehicle>
    <vehicle id="flow3.20" depart="400.00">
        <route edges="edgeR-2-0 edgeU-2-1"/>
    </vehicle>
    <vehicle id="flow4.20" depart="400.00">
        <route edges="edgeR-2-0 edgeR-2-1"/>
    </vehicle>
    <vehicle id="flow5.20" depart="400.00">
        <route edges="edgeR-2-0 edgeD-1-1"/>
    </vehicle>
    <vehicle id="flow6.20" depart="400.00">
        <route edges="edgeU-1-1 edgeL-2-0"/>
    </vehicle>
    <vehicle id="flow7.20" depart="400.00">
        <route edges="edgeU-1-1 edgeR-2-1"/>
    </vehicle>
    <vehicle id="flow8.20" depart="400.00">
        <route edges="edgeU-1-1 edgeU-2-1"/>
    </vehicle>
    <vehicle id="flow9.20" depart="400.00">
        <route edges="edgeU-1-1 edgeL-2-0"/>
    </vehicle>
    <vehicle id="flow0.21" depart="420.00">
        <route edges="edgeD-2-1 edgeL-2-0"/>
    </vehicle>
    <vehicle id="flow1.21" depart="420.00">
        <route edges="edgeD-2-1 edgeR-2-1"/>
    </vehicle>
    <vehicle id="flow10.21" depart="420.00">
        <route edges="edgeL-2-1 edgeU-2-1"/>
    </vehicle>
    <vehicle id="flow11.21" depart="420.00">
        <route edges="edgeL-2-1 edgeL-2-0"/>
    </vehicle>
    <vehicle id="flow12.21" depart="420.00">
        <route edges="edgeL-2-1 edgeD-1-1"/>
    </vehicle>
    <vehicle id="flow2.21" depart="420.00">
        <route edges="edgeD-2-1 edgeD-1-1"/>
    </vehicle>
    <vehicle id="flow3.21" depart="420.00">
        <route edges="edgeR-2-0 edgeU-2-1"/>
    </vehicle>
    <vehicle id="flow4.21" depart="420.00">
        <route edges="edgeR-2-0 edgeR-2-1"/>
    </vehicle>
    <vehicle id="flow5.21" depart="420.00">
        <route edges="edgeR-2-0 edgeD-1-1"/>
    </vehicle>
    <vehicle id="flow6.21" depart="420.00">
        <route edges="edgeU-1-1 edgeL-2-0"/>
    </vehicle>
    <vehicle id="flow7.21" depart="420.00">