<?xml version="1.0" encoding="UTF-8"?>

<!-- generated on Thu Feb 23 08:23:55 2017 by SUMO netconvert Version 0.25.0
<?xml version="1.0" encoding="UTF-8"?>

<configuration xmlns:xsi="http://www.w3.org/2001/XMLSchema-instance" xsi:noNamespaceSchemaLocation="http://sumo.dlr.de/xsd/netconvertConfiguration.xsd">

    <input>
        <node-files value="node.xml"/>
        <edge-files value="edge.xml"/>
    </input>

    <output>
        <output-file value="mySUMONet.net.xml"/>
    </output>

</configuration>
-->

<net version="0.25" xmlns:xsi="http://www.w3.org/2001/XMLSchema-instance" xsi:noNamespaceSchemaLocation="http://sumo.dlr.de/xsd/net_file.xsd">

    <location netOffset="-100.00,-100.00" convBoundary="0.00,0.00,600.00,700.00" origBoundary="100.00,100.00,700.00,800.00" projParameter="!"/>

    <edge id=":node1_0" function="internal">
        <lane id=":node1_0_0" index="0" speed="15.00" length="15.89" shape="-4.95,6.55 -4.23,1.52 -2.08,-2.07 1.52,-4.23 6.55,-4.95"/>
        <lane id=":node1_0_1" index="1" speed="15.00" length="15.89" shape="-1.65,6.55 -1.14,2.96 0.40,0.40 2.96,-1.14 6.55,-1.65"/>
    </edge>
    <edge id=":node1_2" function="internal">
        <lane id=":node1_2_0" index="0" speed="15.00" length="4.82" shape="-1.65,6.55 -0.83,5.31 -0.00,4.90 0.82,5.31 1.65,6.55"/>
    </edge>
    <edge id=":node1_3" function="internal">
        <lane id=":node1_3_0" index="0" speed="15.00" length="5.24" shape="6.55,4.95 5.85,5.05 5.35,5.35 5.05,5.85 4.95,6.55"/>
        <lane id=":node1_3_1" index="1" speed="15.00" length="5.24" shape="6.55,1.65 4.41,1.96 2.88,2.88 1.96,4.41 1.65,6.55"/>
    </edge>
    <edge id=":node1_5" function="internal">
        <lane id=":node1_5_0" index="0" speed="15.00" length="4.82" shape="6.55,1.65 5.31,0.83 4.90,0.00 5.31,-0.82 6.55,-1.65"/>
    </edge>
    <edge id=":node10_0" function="internal">
        <lane id=":node10_0_0" index="0" speed="15.00" length="15.89" shape="6.55,704.95 1.52,704.23 -2.08,702.08 -4.23,698.48 -4.95,693.45"/>
        <lane id=":node10_0_1" index="1" speed="15.00" length="15.89" shape="6.55,701.65 2.96,701.14 0.40,699.60 -1.14,697.04 -1.65,693.45"/>
    </edge>
    <edge id=":node10_2" function="internal">
        <lane id=":node10_2_0" index="0" speed="15.00" length="4.82" shape="6.55,701.65 5.31,700.82 4.90,700.00 5.31,699.17 6.55,698.35"/>
    </edge>
    <edge id=":node10_3" function="internal">
        <lane id=":node10_3_0" index="0" speed="15.00" length="5.24" shape="4.95,693.45 5.05,694.15 5.35,694.65 5.85,694.95 6.55,695.05"/>
        <lane id=":node10_3_1" index="1" speed="15.00" length="5.24" shape="1.65,693.45 1.96,695.59 2.87,697.12 4.41,698.04 6.55,698.35"/>
    </edge>
    <edge id=":node10_5" function="internal">
        <lane id=":node10_5_0" index="0" speed="15.00" length="4.82" shape="1.65,693.45 0.83,694.69 0.00,695.10 -0.83,694.69 -1.65,693.45"/>
    </edge>
    <edge id=":node11_0" function="internal">
        <lane id=":node11_0_0" index="0" speed="15.00" length="16.10" shape="308.05,704.95 303.27,704.95 300.00,704.95 296.73,704.95 291.95,704.95"/>
        <lane id=":node11_0_1" index="1" speed="15.00" length="16.10" shape="308.05,701.65 303.27,701.65 300.00,701.65 296.73,701.65 291.95,701.65"/>
    </edge>
    <edge id=":node11_2" function="internal">
        <lane id=":node11_2_0" index="0" speed="15.00" length="15.64" shape="308.05,701.65 303.81,701.04 300.77,699.22 298.96,696.19 298.35,691.95"/>
    </edge>
    <edge id=":node11_3" function="internal">
        <lane id=":node11_3_0" index="0" speed="15.00" length="4.82" shape="308.05,701.65 306.81,700.82 306.40,700.00 306.81,699.17 308.05,698.35"/>
    </edge>
    <edge id=":node11_4" function="internal">
        <lane id=":node11_4_0" index="0" speed="15.00" length="7.66" shape="304.95,691.95 305.14,693.31 305.72,694.27 306.69,694.86 308.05,695.05"/>
        <lane id=":node11_4_1" index="1" speed="15.00" length="7.66" shape="301.65,691.95 302.05,694.75 303.25,696.75 305.25,697.95 308.05,698.35"/>
    </edge>
    <edge id=":node11_6" function="internal">
        <lane id=":node11_6_0" index="0" speed="15.00" length="15.64" shape="301.65,691.95 301.04,696.19 299.22,699.23 296.19,701.04 291.95,701.65"/>
    </edge>
    <edge id=":node11_7" function="internal">
        <lane id=":node11_7_0" index="0" speed="15.00" length="4.82" shape="301.65,691.95 300.83,693.19 300.00,693.60 299.18,693.19 298.35,691.95"/>
    </edge>
    <edge id=":node11_8" function="internal">
        <lane id=":node11_8_0" index="0" speed="15.00" length="5.00" shape="291.95,695.05 293.31,694.86 294.27,694.27 294.86,693.31 295.05,691.95"/>
    </edge>
    <edge id=":node11_9" function="internal">
        <lane id=":node11_9_0" index="0" speed="15.00" length="16.10" shape="291.95,695.05 296.73,695.05 300.00,695.05 303.27,695.05 308.05,695.05"/>
        <lane id=":node11_9_1" index="1" speed="15.00" length="16.10" shape="291.95,698.35 296.73,698.35 300.00,698.35 303.27,698.35 308.05,698.35"/>
    </edge>
    <edge id=":node11_11" function="internal">
        <lane id=":node11_11_0" index="0" speed="15.00" length="4.82" shape="291.95,698.35 293.19,699.18 293.60,700.00 293.19,700.83 291.95,701.65"/>
    </edge>
    <edge id=":node12_0" function="internal">
        <lane id=":node12_0_0" index="0" speed="15.00" length="15.89" shape="604.95,693.45 604.23,698.48 602.08,702.08 598.48,704.23 593.45,704.95"/>
        <lane id=":node12_0_1" index="1" speed="15.00" length="15.89" shape="601.65,693.45 601.14,697.04 599.60,699.60 597.04,701.14 593.45,701.65"/>
    </edge>
    <edge id=":node12_2" function="internal">
        <lane id=":node12_2_0" index="0" speed="15.00" length="4.82" shape="601.65,693.45 600.82,694.69 600.00,695.10 599.17,694.69 598.35,693.45"/>
    </edge>
    <edge id=":node12_3" function="internal">
        <lane id=":node12_3_0" index="0" speed="15.00" length="5.24" shape="593.45,695.05 594.15,694.95 594.65,694.65 594.95,694.15 595.05,693.45"/>
        <lane id=":node12_3_1" index="1" speed="15.00" length="5.24" shape="593.45,698.35 595.59,698.04 597.12,697.12 598.04,695.59 598.35,693.45"/>
    </edge>
    <edge id=":node12_5" function="internal">
        <lane id=":node12_5_0" index="0" speed="15.00" length="4.82" shape="593.45,698.35 594.69,699.18 595.10,700.00 594.69,700.83 593.45,701.65"/>
    </edge>
    <edge id=":node2_0" function="internal">
        <lane id=":node2_0_0" index="0" speed="15.00" length="7.66" shape="295.05,8.05 294.86,6.69 294.28,5.73 293.31,5.14 291.95,4.95"/>
        <lane id=":node2_0_1" index="1" speed="15.00" length="7.66" shape="298.35,8.05 297.95,5.25 296.75,3.25 294.75,2.05 291.95,1.65"/>
    </edge>
    <edge id=":node2_2" function="internal">
        <lane id=":node2_2_0" index="0" speed="15.00" length="15.64" shape="298.35,8.05 298.96,3.81 300.78,0.77 303.81,-1.04 308.05,-1.65"/>
    </edge>
    <edge id=":node2_3" function="internal">
        <lane id=":node2_3_0" index="0" speed="15.00" length="4.82" shape="298.35,8.05 299.17,6.81 300.00,6.40 300.82,6.81 301.65,8.05"/>
    </edge>
    <edge id=":node2_4" function="internal">
        <lane id=":node2_4_0" index="0" speed="15.00" length="5.00" shape="308.05,4.95 306.69,5.14 305.73,5.73 305.14,6.69 304.95,8.05"/>
    </edge>
    <edge id=":node2_5" function="internal">
        <lane id=":node2_5_0" index="0" speed="15.00" length="16.10" shape="308.05,4.95 303.27,4.95 300.00,4.95 296.73,4.95 291.95,4.95"/>
        <lane id=":node2_5_1" index="1" speed="15.00" length="16.10" shape="308.05,1.65 303.27,1.65 300.00,1.65 296.73,1.65 291.95,1.65"/>
    </edge>
    <edge id=":node2_7" function="internal">
        <lane id=":node2_7_0" index="0" speed="15.00" length="4.82" shape="308.05,1.65 306.81,0.83 306.40,0.00 306.81,-0.83 308.05,-1.65"/>
    </edge>
    <edge id=":node2_8" function="internal">
        <lane id=":node2_8_0" index="0" speed="15.00" length="16.10" shape="291.95,-4.95 296.73,-4.95 300.00,-4.95 303.27,-4.95 308.05,-4.95"/>
        <lane id=":node2_8_1" index="1" speed="15.00" length="16.10" shape="291.95,-1.65 296.73,-1.65 300.00,-1.65 303.27,-1.65 308.05,-1.65"/>
    </edge>
    <edge id=":node2_10" function="internal">
        <lane id=":node2_10_0" index="0" speed="15.00" length="15.64" shape="291.95,-1.65 296.19,-1.04 299.23,0.78 301.04,3.81 301.65,8.05"/>
    </edge>
    <edge id=":node2_11" function="internal">
        <lane id=":node2_11_0" index="0" speed="15.00" length="4.82" shape="291.95,-1.65 293.19,-0.83 293.60,0.00 293.19,0.83 291.95,1.65"/>
    </edge>
    <edge id=":node3_0" function="internal">
        <lane id=":node3_0_0" index="0" speed="15.00" length="5.24" shape="595.05,6.55 594.95,5.85 594.65,5.35 594.15,5.05 593.45,4.95"/>
        <lane id=":node3_0_1" index="1" speed="15.00" length="5.24" shape="598.35,6.55 598.04,4.41 597.12,2.88 595.59,1.96 593.45,1.65"/>
    </edge>
    <edge id=":node3_2" function="internal">
        <lane id=":node3_2_0" index="0" speed="15.00" length="4.82" shape="598.35,6.55 599.18,5.31 600.00,4.90 600.83,5.31 601.65,6.55"/>
    </edge>
    <edge id=":node3_3" function="internal">
        <lane id=":node3_3_0" index="0" speed="15.00" length="15.89" shape="593.45,-4.95 598.48,-4.23 602.08,-2.07 604.23,1.52 604.95,6.55"/>
        <lane id=":node3_3_1" index="1" speed="15.00" length="15.89" shape="593.45,-1.65 597.04,-1.14 599.60,0.40 601.14,2.96 601.65,6.55"/>
    </edge>
    <edge id=":node3_5" function="internal">
        <lane id=":node3_5_0" index="0" speed="15.00" length="4.82" shape="593.45,-1.65 594.69,-0.83 595.10,0.00 594.69,0.83 593.45,1.65"/>
    </edge>
    <edge id=":node4_0" function="internal">
        <lane id=":node4_0_0" index="0" speed="15.00" length="16.10" shape="-4.95,208.05 -4.95,203.27 -4.95,200.00 -4.95,196.73 -4.95,191.95"/>
        <lane id=":node4_0_1" index="1" speed="15.00" length="16.10" shape="-1.65,208.05 -1.65,203.27 -1.65,200.00 -1.65,196.73 -1.65,191.95"/>
    </edge>
    <edge id=":node4_2" function="internal">
        <lane id=":node4_2_0" index="0" speed="15.00" length="15.64" shape="-1.65,208.05 -1.04,203.81 0.77,200.78 3.81,198.96 8.05,198.35"/>
    </edge>
    <edge id=":node4_3" function="internal">
        <lane id=":node4_3_0" index="0" speed="15.00" length="4.82" shape="-1.65,208.05 -0.83,206.81 0.00,206.40 0.83,206.81 1.65,208.05"/>
    </edge>
    <edge id=":node4_4" function="internal">
        <lane id=":node4_4_0" index="0" speed="15.00" length="7.66" shape="8.05,204.95 6.69,205.14 5.72,205.72 5.14,206.69 4.95,208.05"/>
        <lane id=":node4_4_1" index="1" speed="15.00" length="7.66" shape="8.05,201.65 5.25,202.05 3.25,203.25 2.05,205.25 1.65,208.05"/>
    </edge>
    <edge id=":node4_6" function="internal">
        <lane id=":node4_6_0" index="0" speed="15.00" length="15.64" shape="8.05,201.65 3.81,201.04 0.77,199.23 -1.04,196.19 -1.65,191.95"/>
    </edge>
    <edge id=":node4_7" function="internal">
        <lane id=":node4_7_0" index="0" speed="15.00" length="4.82" shape="8.05,201.65 6.81,200.83 6.40,200.00 6.81,199.18 8.05,198.35"/>
    </edge>
    <edge id=":node4_8" function="internal">
        <lane id=":node4_8_0" index="0" speed="15.00" length="5.00" shape="4.95,191.95 5.14,193.31 5.72,194.27 6.69,194.86 8.05,195.05"/>
    </edge>
    <edge id=":node4_9" function="internal">
        <lane id=":node4_9_0" index="0" speed="15.00" length="16.10" shape="4.95,191.95 4.95,196.73 4.95,200.00 4.95,203.27 4.95,208.05"/>
        <lane id=":node4_9_1" index="1" speed="15.00" length="16.10" shape="1.65,191.95 1.65,196.73 1.65,200.00 1.65,203.27 1.65,208.05"/>
    </edge>
    <edge id=":node4_11" function="internal">
        <lane id=":node4_11_0" index="0" speed="15.00" length="4.82" shape="1.65,191.95 0.83,193.19 0.00,193.60 -0.83,193.19 -1.65,191.95"/>
    </edge>
    <edge id=":node5_0" function="internal">
        <lane id=":node5_0_0" index="0" speed="15.00" length="5.00" shape="295.05,208.05 294.86,206.69 294.28,205.72 293.31,205.14 291.95,204.95"/>
    </edge>
    <edge id=":node5_1" function="internal">
        <lane id=":node5_1_0" index="0" speed="15.00" length="16.10" shape="295.05,208.05 295.05,203.27 295.05,200.00 295.05,196.73 295.05,191.95"/>
        <lane id=":node5_1_1" index="1" speed="15.00" length="16.10" shape="298.35,208.05 298.35,203.27 298.35,200.00 298.35,196.73 298.35,191.95"/>
    </edge>
    <edge id=":node5_3" function="internal">
        <lane id=":node5_3_0" index="0" speed="15.00" length="15.64" shape="298.35,208.05 298.96,203.81 300.78,200.78 303.81,198.96 308.05,198.35"/>
    </edge>
    <edge id=":node5_4" function="internal">
        <lane id=":node5_4_0" index="0" speed="15.00" length="4.82" shape="298.35,208.05 299.17,206.81 300.00,206.40 300.82,206.81 301.65,208.05"/>
    </edge>
    <edge id=":node5_5" function="internal">
        <lane id=":node5_5_0" index="0" speed="15.00" length="5.00" shape="308.05,204.95 306.69,205.14 305.73,205.72 305.14,206.69 304.95,208.05"/>
    </edge>
    <edge id=":node5_6" function="internal">
        <lane id=":node5_6_0" index="0" speed="15.00" length="16.10" shape="308.05,204.95 303.27,204.95 300.00,204.95 296.73,204.95 291.95,204.95"/>
        <lane id=":node5_6_1" index="1" speed="15.00" length="16.10" shape="308.05,201.65 303.27,201.65 300.00,201.65 296.73,201.65 291.95,201.65"/>
    </edge>
    <edge id=":node5_8" function="internal">
        <lane id=":node5_8_0" index="0" speed="15.00" length="15.64" shape="308.05,201.65 303.81,201.04 300.77,199.23 298.96,196.19 298.35,191.95"/>
    </edge>
    <edge id=":node5_9" function="internal">
        <lane id=":node5_9_0" index="0" speed="15.00" length="4.82" shape="308.05,201.65 306.81,200.83 306.40,200.00 306.81,199.18 308.05,198.35"/>
    </edge>
    <edge id=":node5_10" function="internal">
        <lane id=":node5_10_0" index="0" speed="15.00" length="5.00" shape="304.95,191.95 305.14,193.31 305.72,194.27 306.69,194.86 308.05,195.05"/>
    </edge>
    <edge id=":node5_11" function="internal">
        <lane id=":node5_11_0" index="0" speed="15.00" length="16.10" shape="304.95,191.95 304.95,196.73 304.95,200.00 304.95,203.27 304.95,208.05"/>
        <lane id=":node5_11_1" index="1" speed="15.00" length="16.10" shape="301.65,191.95 301.65,196.73 301.65,200.00 301.65,203.27 301.65,208.05"/>
    </edge>
    <edge id=":node5_13" function="internal">
        <lane id=":node5_13_0" index="0" speed="15.00" length="15.64" shape="301.65,191.95 301.04,196.19 299.22,199.22 296.19,201.04 291.95,201.65"/>
    </edge>
    <edge id=":node5_14" function="internal">
        <lane id=":node5_14_0" index="0" speed="15.00" length="4.82" shape="301.65,191.95 300.83,193.19 300.00,193.60 299.18,193.19 298.35,191.95"/>
    </edge>
    <edge id=":node5_15" function="internal">
        <lane id=":node5_15_0" index="0" speed="15.00" length="5.00" shape="291.95,195.05 293.31,194.86 294.27,194.28 294.86,193.31 295.05,191.95"/>
    </edge>
    <edge id=":node5_16" function="internal">
        <lane id=":node5_16_0" index="0" speed="15.00" length="16.10" shape="291.95,195.05 296.73,195.05 300.00,195.05 303.27,195.05 308.05,195.05"/>
        <lane id=":node5_16_1" index="1" speed="15.00" length="16.10" shape="291.95,198.35 296.73,198.35 300.00,198.35 303.27,198.35 308.05,198.35"/>
    </edge>
    <edge id=":node5_18" function="internal">
        <lane id=":node5_18_0" index="0" speed="15.00" length="15.64" shape="291.95,198.35 296.19,198.96 299.23,200.77 301.04,203.81 301.65,208.05"/>
    </edge>
    <edge id=":node5_19" function="internal">
        <lane id=":node5_19_0" index="0" speed="15.00" length="4.82" shape="291.95,198.35 293.19,199.17 293.60,200.00 293.19,200.82 291.95,201.65"/>
    </edge>
    <edge id=":node6_0" function="internal">
        <lane id=":node6_0_0" index="0" speed="15.00" length="5.00" shape="595.05,208.05 594.86,206.69 594.27,205.72 593.31,205.14 591.95,204.95"/>
    </edge>
    <edge id=":node6_1" function="internal">
        <lane id=":node6_1_0" index="0" speed="15.00" length="16.10" shape="595.05,208.05 595.05,203.27 595.05,200.00 595.05,196.73 595.05,191.95"/>
        <lane id=":node6_1_1" index="1" speed="15.00" length="16.10" shape="598.35,208.05 598.35,203.27 598.35,200.00 598.35,196.73 598.35,191.95"/>
    </edge>
    <edge id=":node6_3" function="internal">
        <lane id=":node6_3_0" index="0" speed="15.00" length="4.82" shape="598.35,208.05 599.18,206.81 600.00,206.40 600.83,206.81 601.65,208.05"/>
    </edge>
    <edge id=":node6_4" function="internal">
        <lane id=":node6_4_0" index="0" speed="15.00" length="16.10" shape="604.95,191.95 604.95,196.73 604.95,200.00 604.95,203.27 604.95,208.05"/>
        <lane id=":node6_4_1" index="1" speed="15.00" length="16.10" shape="601.65,191.95 601.65,196.73 601.65,200.00 601.65,203.27 601.65,208.05"/>
    </edge>
    <edge id=":node6_6" function="internal">
        <lane id=":node6_6_0" index="0" speed="15.00" length="15.64" shape="601.65,191.95 601.04,196.19 599.22,199.22 596.19,201.04 591.95,201.65"/>
    </edge>
    <edge id=":node6_7" function="internal">
        <lane id=":node6_7_0" index="0" speed="15.00" length="4.82" shape="601.65,191.95 600.82,193.19 600.00,193.60 599.17,193.19 598.35,191.95"/>
    </edge>
    <edge id=":node6_8" function="internal">
        <lane id=":node6_8_0" index="0" speed="15.00" length="7.66" shape="591.95,195.05 593.31,194.86 594.27,194.28 594.86,193.31 595.05,191.95"/>
        <lane id=":node6_8_1" index="1" speed="15.00" length="7.66" shape="591.95,198.35 594.75,197.95 596.75,196.75 597.95,194.75 598.35,191.95"/>
    </edge>
    <edge id=":node6_10" function="internal">
        <lane id=":node6_10_0" index="0" speed="15.00" length="15.64" shape="591.95,198.35 596.19,198.96 599.23,200.77 601.04,203.81 601.65,208.05"/>
    </edge>
    <edge id=":node6_11" function="internal">
        <lane id=":node6_11_0" index="0" speed="15.00" length="4.82" shape="591.95,198.35 593.19,199.17 593.60,200.00 593.19,200.82 591.95,201.65"/>
    </edge>
    <edge id=":node7_0" function="internal">
        <lane id=":node7_0_0" index="0" speed="15.00" length="16.10" shape="-4.95,508.05 -4.95,503.27 -4.95,500.00 -4.95,496.73 -4.95,491.95"/>
        <lane id=":node7_0_1" index="1" speed="15.00" length="16.10" shape="-1.65,508.05 -1.65,503.27 -1.65,500.00 -1.65,496.73 -1.65,491.95"/>
    </edge>
    <edge id=":node7_2" function="internal">
        <lane id=":node7_2_0" index="0" speed="15.00" length="15.64" shape="-1.65,508.05 -1.04,503.81 0.77,500.77 3.81,498.96 8.05,498.35"/>
    </edge>
    <edge id=":node7_3" function="internal">
        <lane id=":node7_3_0" index="0" speed="15.00" length="4.82" shape="-1.65,508.05 -0.83,506.81 0.00,506.40 0.83,506.81 1.65,508.05"/>
    </edge>
    <edge id=":node7_4" function="internal">
        <lane id=":node7_4_0" index="0" speed="15.00" length="7.66" shape="8.05,504.95 6.69,505.14 5.72,505.72 5.14,506.69 4.95,508.05"/>
        <lane id=":node7_4_1" index="1" speed="15.00" length="7.66" shape="8.05,501.65 5.25,502.05 3.25,503.25 2.05,505.25 1.65,508.05"/>
    </edge>
    <edge id=":node7_6" function="internal">
        <lane id=":node7_6_0" index="0" speed="15.00" length="15.64" shape="8.05,501.65 3.81,501.04 0.77,499.22 -1.04,496.19 -1.65,491.95"/>
    </edge>
    <edge id=":node7_7" function="internal">
        <lane id=":node7_7_0" index="0" speed="15.00" length="4.82" shape="8.05,501.65 6.81,500.82 6.40,500.00 6.81,499.18 8.05,498.35"/>
    </edge>
    <edge id=":node7_8" function="internal">
        <lane id=":node7_8_0" index="0" speed="15.00" length="5.00" shape="4.95,491.95 5.14,493.31 5.72,494.27 6.69,494.86 8.05,495.05"/>
    </edge>
    <edge id=":node7_9" function="internal">
        <lane id=":node7_9_0" index="0" speed="15.00" length="16.10" shape="4.95,491.95 4.95,496.73 4.95,500.00 4.95,503.27 4.95,508.05"/>
        <lane id=":node7_9_1" index="1" speed="15.00" length="16.10" shape="1.65,491.95 1.65,496.73 1.65,500.00 1.65,503.27 1.65,508.05"/>
    </edge>
    <edge id=":node7_11" function="internal">
        <lane id=":node7_11_0" index="0" speed="15.00" length="4.82" shape="1.65,491.95 0.83,493.19 0.00,493.60 -0.83,493.19 -1.65,491.95"/>
    </edge>
    <edge id=":node8_0" function="internal">
        <lane id=":node8_0_0" index="0" speed="15.00" length="5.00" shape="295.05,508.05 294.86,506.69 294.28,505.73 293.31,505.14 291.95,504.95"/>
    </edge>
    <edge id=":node8_1" function="internal">
        <lane id=":node8_1_0" index="0" speed="15.00" length="16.10" shape="295.05,508.05 295.05,503.27 295.05,500.00 295.05,496.73 295.05,491.95"/>
        <lane id=":node8_1_1" index="1" speed="15.00" length="16.10" shape="298.35,508.05 298.35,503.27 298.35,500.00 298.35,496.73 298.35,491.95"/>
    </edge>
    <edge id=":node8_3" function="internal">
        <lane id=":node8_3_0" index="0" speed="15.00" length="15.64" shape="298.35,508.05 298.96,503.81 300.78,500.77 303.81,498.96 308.05,498.35"/>
    </edge>
    <edge id=":node8_4" function="internal">
        <lane id=":node8_4_0" index="0" speed="15.00" length="4.82" shape="298.35,508.05 299.17,506.81 300.00,506.40 300.82,506.81 301.65,508.05"/>
    </edge>
    <edge id=":node8_5" function="internal">
        <lane id=":node8_5_0" index="0" speed="15.00" length="5.00" shape="308.05,504.95 306.69,505.14 305.73,505.72 305.14,506.69 304.95,508.05"/>
    </edge>
    <edge id=":node8_6" function="internal">
        <lane id=":node8_6_0" index="0" speed="15.00" length="16.10" shape="308.05,504.95 303.27,504.95 300.00,504.95 296.73,504.95 291.95,504.95"/>
        <lane id=":node8_6_1" index="1" speed="15.00" length="16.10" shape="308.05,501.65 303.27,501.65 300.00,501.65 296.73,501.65 291.95,501.65"/>
    </edge>
    <edge id=":node8_8" function="internal">
        <lane id=":node8_8_0" index="0" speed="15.00" length="15.64" shape="308.05,501.65 303.81,501.04 300.77,499.22 298.96,496.19 298.35,491.95"/>
    </edge>
    <edge id=":node8_9" function="internal">
        <lane id=":node8_9_0" index="0" speed="15.00" length="4.82" shape="308.05,501.65 306.81,500.82 306.40,500.00 306.81,499.18 308.05,498.35"/>
    </edge>
    <edge id=":node8_10" function="internal">
        <lane id=":node8_10_0" index="0" speed="15.00" length="5.00" shape="304.95,491.95 305.14,493.31 305.72,494.27 306.69,494.86 308.05,495.05"/>
    </edge>
    <edge id=":node8_11" function="internal">
        <lane id=":node8_11_0" index="0" speed="15.00" length="16.10" shape="304.95,491.95 304.95,496.73 304.95,500.00 304.95,503.27 304.95,508.05"/>
        <lane id=":node8_11_1" index="1" speed="15.00" length="16.10" shape="301.65,491.95 301.65,496.73 301.65,500.00 301.65,503.27 301.65,508.05"/>
    </edge>
    <edge id=":node8_13" function="internal">
        <lane id=":node8_13_0" index="0" speed="15.00" length="15.64" shape="301.65,491.95 301.04,496.19 299.22,499.23 296.19,501.04 291.95,501.65"/>
    </edge>
    <edge id=":node8_14" function="internal">
        <lane id=":node8_14_0" index="0" speed="15.00" length="4.82" shape="301.65,491.95 300.83,493.19 300.00,493.60 299.18,493.19 298.35,491.95"/>
    </edge>
    <edge id=":node8_15" function="internal">
        <lane id=":node8_15_0" index="0" speed="15.00" length="5.00" shape="291.95,495.05 293.31,494.86 294.27,494.28 294.86,493.31 295.05,491.95"/>
    </edge>
    <edge id=":node8_16" function="internal">
        <lane id=":node8_16_0" index="0" speed="15.00" length="16.10" shape="291.95,495.05 296.73,495.05 300.00,495.05 303.27,495.05 308.05,495.05"/>
        <lane id=":node8_16_1" index="1" speed="15.00" length="16.10" shape="291.95,498.35 296.73,498.35 300.00,498.35 303.27,498.35 308.05,498.35"/>
    </edge>
    <edge id=":node8_18" function="internal">
        <lane id=":node8_18_0" index="0" speed="15.00" length="15.64" shape="291.95,498.35 296.19,498.96 299.23,500.78 301.04,503.81 301.65,508.05"/>
    </edge>
    <edge id=":node8_19" function="internal">
        <lane id=":node8_19_0" index="0" speed="15.00" length="4.82" shape="291.95,498.35 293.19,499.18 293.60,500.00 293.19,500.82 291.95,501.65"/>
    </edge>
    <edge id=":node9_0" function="internal">
        <lane id=":node9_0_0" index="0" speed="15.00" length="5.00" shape="595.05,508.05 594.86,506.69 594.27,505.73 593.31,505.14 591.95,504.95"/>
    </edge>
    <edge id=":node9_1" function="internal">
        <lane id=":node9_1_0" index="0" speed="15.00" length="16.10" shape="595.05,508.05 595.05,503.27 595.05,500.00 595.05,496.73 595.05,491.95"/>
        <lane id=":node9_1_1" index="1" speed="15.00" length="16.10" shape="598.35,508.05 598.35,503.27 598.35,500.00 598.35,496.73 598.35,491.95"/>
    </edge>
    <edge id=":node9_3" function="internal">
        <lane id=":node9_3_0" index="0" speed="15.00" length="4.82" shape="598.35,508.05 599.18,506.81 600.00,506.40 600.83,506.81 601.65,508.05"/>
    </edge>
    <edge id=":node9_4" function="internal">
        <lane id=":node9_4_0" index="0" speed="15.00" length="16.10" shape="604.95,491.95 604.95,496.73 604.95,500.00 604.95,503.27 604.95,508.05"/>
        <lane id=":node9_4_1" index="1" speed="15.00" length="16.10" shape="601.65,491.95 601.65,496.73 601.65,500.00 601.65,503.27 601.65,508.05"/>
    </edge>
    <edge id=":node9_6" function="internal">
        <lane id=":node9_6_0" index="0" speed="15.00" length="15.64" shape="601.65,491.95 601.04,496.19 599.22,499.23 596.19,501.04 591.95,501.65"/>
    </edge>
    <edge id=":node9_7" function="internal">
        <lane id=":node9_7_0" index="0" speed="15.00" length="4.82" shape="601.65,491.95 600.82,493.19 600.00,493.60 599.17,493.19 598.35,491.95"/>
    </edge>
    <edge id=":node9_8" function="internal">
        <lane id=":node9_8_0" index="0" speed="15.00" length="7.66" shape="591.95,495.05 593.31,494.86 594.27,494.28 594.86,493.31 595.05,491.95"/>
        <lane id=":node9_8_1" index="1" speed="15.00" length="7.66" shape="591.95,498.35 594.75,497.95 596.75,496.75 597.95,494.75 598.35,491.95"/>
    </edge>
    <edge id=":node9_10" function="internal">
        <lane id=":node9_10_0" index="0" speed="15.00" length="15.64" shape="591.95,498.35 596.19,498.96 599.23,500.78 601.04,503.81 601.65,508.05"/>
    </edge>
    <edge id=":node9_11" function="internal">
        <lane id=":node9_11_0" index="0" speed="15.00" length="4.82" shape="591.95,498.35 593.19,499.18 593.60,500.00 593.19,500.82 591.95,501.65"/>
    </edge>

    <edge id="edgeD-0-0" from="node4" to="node1" priority="75">
        <lane id="edgeD-0-0_0" index="0" speed="15.00" length="185.40" shape="-4.95,191.95 -4.95,6.55"/>
        <lane id="edgeD-0-0_1" index="1" speed="15.00" length="185.40" shape="-1.65,191.95 -1.65,6.55"/>
    </edge>
    <edge id="edgeD-0-1" from="node5" to="node2" priority="75">
        <lane id="edgeD-0-1_0" index="0" speed="15.00" length="183.90" shape="295.05,191.95 295.05,8.05"/>
        <lane id="edgeD-0-1_1" index="1" speed="15.00" length="183.90" shape="298.35,191.95 298.35,8.05"/>
    </edge>
    <edge id="edgeD-0-2" from="node6" to="node3" priority="75">
        <lane id="edgeD-0-2_0" index="0" speed="15.00" length="185.40" shape="595.05,191.95 595.05,6.55"/>
        <lane id="edgeD-0-2_1" index="1" speed="15.00" length="185.40" shape="598.35,191.95 598.35,6.55"/>
    </edge>
    <edge id="edgeD-1-0" from="node7" to="node4" priority="75">
        <lane id="edgeD-1-0_0" index="0" speed="15.00" length="283.90" shape="-4.95,491.95 -4.95,208.05"/>
        <lane id="edgeD-1-0_1" index="1" speed="15.00" length="283.90" shape="-1.65,491.95 -1.65,208.05"/>
    </edge>
    <edge id="edgeD-1-1" from="node8" to="node5" priority="75">
        <lane id="edgeD-1-1_0" index="0" speed="15.00" length="283.90" shape="295.05,491.95 295.05,208.05"/>
        <lane id="edgeD-1-1_1" index="1" speed="15.00" length="283.90" shape="298.35,491.95 298.35,208.05"/>
    </edge>
    <edge id="edgeD-1-2" from="node9" to="node6" priority="75">
        <lane id="edgeD-1-2_0" index="0" speed="15.00" length="283.90" shape="595.05,491.95 595.05,208.05"/>
        <lane id="edgeD-1-2_1" index="1" speed="15.00" length="283.90" shape="598.35,491.95 598.35,208.05"/>
    </edge>
    <edge id="edgeD-2-0" from="node10" to="node7" priority="75">
        <lane id="edgeD-2-0_0" index="0" speed="15.00" length="185.40" shape="-4.95,693.45 -4.95,508.05"/>
        <lane id="edgeD-2-0_1" index="1" speed="15.00" length="185.40" shape="-1.65,693.45 -1.65,508.05"/>
    </edge>
    <edge id="edgeD-2-1" from="node11" to="node8" priority="75">
        <lane id="edgeD-2-1_0" index="0" speed="15.00" length="183.90" shape="295.05,691.95 295.05,508.05"/>
        <lane id="edgeD-2-1_1" index="1" speed="15.00" length="183.90" shape="298.35,691.95 298.35,508.05"/>
    </edge>
    <edge id="edgeD-2-2" from="node12" to="node9" priority="75">
        <lane id="edgeD-2-2_0" index="0" speed="15.00" length="185.40" shape="595.05,693.45 595.05,508.05"/>
        <lane id="edgeD-2-2_1" index="1" speed="15.00" length="185.40" shape="598.35,693.45 598.35,508.05"/>
    </edge>
    <edge id="edgeL-0-0" from="node2" to="node1" priority="75">
        <lane id="edgeL-0-0_0" index="0" speed="15.00" length="285.40" shape="291.95,4.95 6.55,4.95"/>
        <lane id="edgeL-0-0_1" index="1" speed="15.00" length="285.40" shape="291.95,1.65 6.55,1.65"/>
    </edge>
    <edge id="edgeL-0-1" from="node3" to="node2" priority="75">
        <lane id="edgeL-0-1_0" index="0" speed="15.00" length="285.40" shape="593.45,4.95 308.05,4.95"/>
        <lane id="edgeL-0-1_1" index="1" speed="15.00" length="285.40" shape="593.45,1.65 308.05,1.65"/>
    </edge>
    <edge id="edgeL-1-0" from="node5" to="node4" priority="75">
        <lane id="edgeL-1-0_0" index="0" speed="15.00" length="283.90" shape="291.95,204.95 8.05,204.95"/>
        <lane id="edgeL-1-0_1" index="1" speed="15.00" length="283.90" shape="291.95,201.65 8.05,201.65"/>
    </edge>
    <edge id="edgeL-1-1" from="node6" to="node5" priority="75">