<configuration xmlns:xsi="http://www.w3.org/2001/XMLSchema-instance" xsi:noNamespaceSchemaLocation="http://sumo.sf.net/xsd/sumoConfiguration.xsd">
    <input>
        <net-file value="input.net.xml"/>
        <route-files value="input.rou.xml"/>
    </input>

    <time>
        <begin value="0"/>
        <end value="250"/>
        <step-length value="0.1"/>
    </time>
</configuration>
