<?xml version="1.0" encoding="UTF-8"?>

<!-- generated on Wed Nov  9 19:25:47 2016 by SUMO duarouter Version 0.25.0
<?xml version="1.0" encoding="UTF-8"?>

<configuration xmlns:xsi="http://www.w3.org/2001/XMLSchema-instance" xsi:noNamespaceSchemaLocation="http://sumo.dlr.de/xsd/duarouterConfiguration.xsd">

    <input>
        <net-file value="input.net.xml"/>
        <flow-files value="input.flow.xml"/>
    </input>

    <output>
        <output-file value="input.rou.xml"/>
    </output>

    <processing>
        <randomize-flows value="true"/>
    </processing>

    <random_number>
        <random value="true"/>
    </random_number>

</configuration>
-->

<routes xmlns:xsi="http://www.w3.org/2001/XMLSchema-instance" xsi:noNamespaceSchemaLocation="http://sumo.dlr.de/xsd/routes_file.xsd">
    <vType id="passenger" length="4.30" minGap="2.50" maxSpeed="23.33" speedFactor="1.00" speedDev="0.10" color="yellow">
        <carFollowing-Krauss accel="2.90" decel="7.50" sigma="0.50"/>
    </vType>
    <vehicle id="2.00" type="passenger" depart="0.77" departLane="random" departPos="base" departSpeed="random">
        <route edges="edge1 edge4"/>
    </vehicle>
    <vehicle id="2.01" type="passenger" depart="2.01" departLane="random" departPos="base" departSpeed="random">
        <route edges="edge1 edge4"/>
    </vehicle>
    <vehicle id="2.02" type="passenger" depart="3.22" departLane="random" departPos="base" departSpeed="random">
        <route edges="edge1 edge4"/>
    </vehicle>
    <vehicle id="0" type="passenger" depart="3.31" departLane="random" departPos="base" departSpeed="random">
        <route edges="edge1 edge2"/>
    </vehicle>
    <vehicle id="1.00" type="passenger" depart="3.54" departLane="random" departPos="base" departSpeed="random">
        <route edges="edge1 edge3"/>
    </vehicle>
    <vehicle id="2.03" type="passenger" depart="5.29" departLane="random" departPos="base" departSpeed="random">
        <route edges="edge1 edge4"/>
    </vehicle>
    <vehicle id="1.01" type="passenger" depart="6.03" departLane="random" departPos="base" departSpeed="random">
        <route edges="edge1 edge3"/>
    </vehicle>
    <vehicle id="1.02" type="passenger" depart="6.45" departLane="random" departPos="base" departSpeed="random">
        <route edges="edge1 edge3"/>
    </vehicle>
    <vehicle id="1.03" type="passenger" depart="6.54" departLane="random" departPos="base" departSpeed="random">
        <route edges="edge1 edge3"/>
    </vehicle>
    <vehicle id="2.04" type="passenger" depart="6.87" departLane="random" departPos="base" departSpeed="random">
        <route edges="edge1 edge4"/>
    </vehicle>
    <vehicle id="1" type="passenger" depart="6.98" departLane="random" departPos="base" departSpeed="random">
        <route edges="edge1 edge2"/>
    </vehicle>
    <vehicle id="2.05" type="passenger" depart="8.61" departLane="random" departPos="base" departSpeed="random">
        <route edges="edge1 edge4"/>
    </vehicle>
    <vehicle id="2.06" type="passenger" depart="8.91" departLane="random" departPos="base" departSpeed="random">
        <route edges="edge1 edge4"/>
    </vehicle>
    <vehicle id="2" type="passenger" depart="9.92" departLane="random" departPos="base" departSpeed="random">
        <route edges="edge1 edge2"/>
    </vehicle>
    <vehicle id="2.07" type="passenger" depart="10.40" departLane="random" departPos="base" departSpeed="random">
        <route edges="edge1 edge4"/>
    </vehicle>
    <vehicle id="3" type="passenger" depart="11.46" departLane="random" departPos="base" departSpeed="random">
        <route edges="edge1 edge2"/>
    </vehicle>
    <vehicle id="1.04" type="passenger" depart="12.44" departLane="random" departPos="base" departSpeed="random">
        <route edges="edge1 edge3"/>
    </vehicle>
    <vehicle id="2.08" type="passenger" depart="13.13" departLane="random" departPos="base" departSpeed="random">
        <route edges="edge1 edge4"/>
    </vehicle>
    <vehicle id="1.05" type="passenger" depart="13.26" departLane="random" departPos="base" departSpeed="random">
        <route edges="edge1 edge3"/>
    </vehicle>
    <vehicle id="4" type="passenger" depart="14.44" departLane="random" departPos="base" departSpeed="random">
        <route edges="edge1 edge2"/>
    </vehicle>
    <vehicle id="5" type="passenger" depart="17.13" departLane="random" departPos="base" departSpeed="random">
        <route edges="edge1 edge2"/>
    </vehicle>
    <vehicle id="2.09" type="passenger" depart="18.22" departLane="random" departPos="base" departSpeed="random">
        <route edges="edge1 edge4"/>
    </vehicle>
    <vehicle id="6" type="passenger" depart="18.37" departLane="random" departPos="base" departSpeed="random">
        <route edges="edge1 edge2"/>
    </vehicle>
    <vehicle id="7" type="passenger" depart="18.84" departLane="random" departPos="base" departSpeed="random">
        <route edges="edge1 edge2"/>
    </vehicle>
    <vehicle id="2.10" type="passenger" depart="19.02" departLane="random" departPos="base" departSpeed="random">
        <route edges="edge1 edge4"/>
    </vehicle>
    <vehicle id="2.11" type="passenger" depart="19.56" departLane="random" departPos="base" departSpeed="random">
        <route edges="edge1 edge4"/>
    </vehicle>
    <vehicle id="8" type="passenger" depart="19.89" departLane="random" departPos="base" departSpeed="random">
        <route edges="edge1 edge2"/>
    </vehicle>
    <vehicle id="1.06" type="passenger" depart="23.39" departLane="random" departPos="base" departSpeed="random">
        <route edges="edge1 edge3"/>
    </vehicle>
    <vehicle id="2.12" type="passenger" depart="23.77" departLane="random" departPos="base" departSpeed="random">
        <route edges="edge1 edge4"/>
    </vehicle>
    <vehicle id="2.13" type="passenger" depart="24.05" departLane="random" departPos="base" departSpeed="random">
        <route edges="edge1 edge4"/>
    </vehicle>
    <vehicle id="2.14" type="passenger" depart="24.20" departLane="random" departPos="base" departSpeed="random">
        <route edges="edge1 edge4"/>
    </vehicle>
    <vehicle id="1.07" type="passenger" depart="24.25" departLane="random" departPos="base" departSpeed="random">
        <route edges="edge1 edge3"/>
    </vehicle>
    <vehicle id="9" type="passenger" depart="24.30" departLane="random" departPos="base" departSpeed="random">
        <route edges="edge1 edge2"/>
    </vehicle>
    <vehicle id="10" type="passenger" depart="24.65" departLane="random" departPos="base" departSpeed="random">
        <route edges="edge1 edge2"/>
    </vehicle>
    <vehicle id="2.15" type="passenger" depart="24.86" departLane="random" departPos="base" departSpeed="random">
        <route edges="edge1 edge4"/>
    </vehicle>
    <vehicle id="1.08" type="passenger" depart="25.07" departLane="random" departPos="base" departSpeed="random">
        <route edges="edge1 edge3"/>
    </vehicle>
    <vehicle id="2.16" type="passenger" depart="26.14" departLane="random" departPos="base" departSpeed="random">
        <route edges="edge1 edge4"/>
    </vehicle>
    <vehicle id="11" type="passenger" depart="26.43" departLane="random" departPos="base" departSpeed="random">
        <route edges="edge1 edge2"/>
    </vehicle>
    <vehicle id="2.17" type="passenger" depart="27.00" departLane="random" departPos="base" departSpeed="random">
        <route edges="edge1 edge4"/>
    </vehicle>
    <vehicle id="2.18" type="passenger" depart="27.95" departLane="random" departPos="base" departSpeed="random">
        <route edges="edge1 edge4"/>
    </vehicle>
    <vehicle id="12" type="passenger" depart="29.77" departLane="random" departPos="base" departSpeed="random">
        <route edges="edge1 edge2"/>
    </vehicle>
    <vehicle id="2.19" type="passenger" depart="30.25" departLane="random" departPos="base" departSpeed="random">
        <route edges="edge1 edge4"/>
    </vehicle>
    <vehicle id="13" type="passenger" depart="30.78" departLane="random" departPos="base" departSpeed="random">
        <route edges="edge1 edge2"/>
    </vehicle>
    <vehicle id="2.20" type="passenger" depart="36.39" departLane="random" departPos="base" departSpeed="random">
        <route edges="edge1 edge4"/>
    </vehicle>
    <vehicle id="2.21" type="passenger" depart="36.52" departLane="random" departPos="base" departSpeed="random">
        <route edges="edge1 edge4"/>
    </vehicle>
    <vehicle id="1.09" type="passenger" depart="36.96" departLane="random" departPos="base" departSpeed="random">
        <route edges="edge1 edge3"/>
    </vehicle>
    <vehicle id="14" type="passenger" depart="37.85" departLane="random" departPos="base" departSpeed="random">
        <route edges="edge1 edge2"/>
    </vehicle>
    <vehicle id="15" type="passenger" depart="38.93" departLane="random" departPos="base" departSpeed="random">
        <route edges="edge1 edge2"/>
    </vehicle>
    <vehicle id="16" type="passenger" depart="42.24" departLane="random" departPos="base" departSpeed="random">
        <route edges="edge1 edge2"/>
    </vehicle>
    <vehicle id="1.10" type="passenger" depart="42.40" departLane="random" departPos="base" departSpeed="random">
        <route edges="edge1 edge3"/>
    </vehicle>
    <vehicle id="1.11" type="passenger" depart="44.40" departLane="random" departPos="base" departSpeed="random">
        <route edges="edge1 edge3"/>
    </vehicle>
    <vehicle id="17" type="passenger" depart="48.72" departLane="random" departPos="base" departSpeed="random">
        <route edges="edge1 edge2"/>
    </vehicle>
    <vehicle id="18" type="passenger" depart="48.93" departLane="random" departPos="base" departSpeed="random">
        <route edges="edge1 edge2"/>
    </vehicle>
    <vehicle id="1.12" type="passenger" depart="49.35" departLane="random" departPos="base" departSpeed="random">
        <route edges="edge1 edge3"/>
    </vehicle>
    <vehicle id="1.13" type="passenger" depart="51.51" departLane="random" departPos="base" departSpeed="random">
        <route edges="edge1 edge3"/>
    </vehicle>
    <vehicle id="19" type="passenger" depart="51.78" departLane="random" departPos="base" departSpeed="random">
        <route edges="edge1 edge2"/>
    </vehicle>
    <vehicle id="1.14" type="passenger" depart="51.90" departLane="random" departPos="base" departSpeed="random">
        <route edges="edge1 edge3"/>
    </vehicle>
    <vehicle id="20" type="passenger" depart="52.52" departLane="random" departPos="base" departSpeed="random">
        <route edges="edge1 edge2"/>
    </vehicle>
    <vehicle id="21" type="passenger" depart="53.21" departLane="random" departPos="base" departSpeed="random">
        <route edges="edge1 edge2"/>
    </vehicle>
    <vehicle id="22" type="passenger" depart="53.65" departLane="random" departPos="base" departSpeed="random">
        <route edges="edge1 edge2"/>
    </vehicle>
    <vehicle id="2.22" type="passenger" depart="54.25" departLane="random" departPos="base" departSpeed="random">
        <route edges="edge1 edge4"/>
    </vehicle>
    <vehicle id="23" type="passenger" depart="54.40" departLane="random" departPos="base" departSpeed="random">
        <route edges="edge1 edge2"/>
    </vehicle>
    <vehicle id="24" type="passenger" depart="55.21" departLane="random" departPos="base" departSpeed="random">
        <route edges="edge1 edge2"/>
    </vehicle>
    <vehicle id="2.23" type="passenger" depart="56.14" departLane="random" departPos="base" departSpeed="random">
        <route edges="edge1 edge4"/>
    </vehicle>
    <vehicle id="2.24" type="passenger" depart="56.69" departLane="random" departPos="base" departSpeed="random">
        <route edges="edge1 edge4"/>
    </vehicle>
    <vehicle id="2.25" type="passenger" depart="57.45" departLane="random" departPos="base" departSpeed="random">
        <route edges="edge1 edge4"/>
    </vehicle>
    <vehicle id="25" type="passenger" depart="58.11" departLane="random" departPos="base" departSpeed="random">
        <route edges="edge1 edge2"/>
    </vehicle>
    <vehicle id="2.26" type="passenger" depart="58.75" departLane="random" departPos="base" departSpeed="random">
        <route edges="edge1 edge4"/>
    </vehicle>
    <vehicle id="1.15" type="passenger" depart="59.28" departLane="random" departPos="base" departSpeed="random">
        <route edges="edge1 edge3"/>
    </vehicle>
    <vehicle id="1.16" type="passenger" depart="59.31" departLane="random" departPos="base" departSpeed="random">
        <route edges="edge1 edge3"/>
    </vehicle>
    <vehicle id="1.17" type="passenger" depart="60.33" departLane="random" departPos="base" departSpeed="random">
        <route edges="edge1 edge3"/>
    </vehicle>
    <vehicle id="2.27" type="passenger" depart="60.44" departLane="random" departPos="base" departSpeed="random">
        <route edges="edge1 edge4"/>
    </vehicle>
    <vehicle id="26" type="passenger" depart="60.86" departLane="random" departPos="base" departSpeed="random">
        <route edges="edge1 edge2"/>
    </vehicle>
    <vehicle id="1.18" type="passenger" depart="61.04" departLane="random" departPos="base" departSpeed="random">
        <route edges="edge1 edge3"/>
    </vehicle>
    <vehicle id="1.19" type="passenger" depart="62.41" departLane="random" departPos="base" departSpeed="random">
        <route edges="edge1 edge3"/>
    </vehicle>
    <vehicle id="27" type="passenger" depart="62.50" departLane="random" departPos="base" departSpeed="random">
        <route edges="edge1 edge2"/>
    </vehicle>
    <vehicle id="2.28" type="passenger" depart="63.05" departLane="random" departPos="base" departSpeed="random">
        <route edges="edge1 edge4"/>
    </vehicle>
    <vehicle id="28" type="passenger" depart="63.31" departLane="random" departPos="base" departSpeed="random">
        <route edges="edge1 edge2"/>
    </vehicle>
    <vehicle id="1.20" type="passenger" depart="63.85" departLane="random" departPos="base" departSpeed="random">
        <route edges="edge1 edge3"/>
    </vehicle>
    <vehicle id="2.29" type="passenger" depart="64.56" departLane="random" departPos="base" departSpeed="random">
        <route edges="edge1 edge4"/>
    </vehicle>
    <vehicle id="29" type="passenger" depart="64.77" departLane="random" departPos="base" departSpeed="random">
        <route edges="edge1 edge2"/>
    </vehicle>
    <vehicle id="30" type="passenger" depart="64.91" departLane="random" departPos="base" departSpeed="random">
        <route edges="edge1 edge2"/>
    </vehicle>
    <vehicle id="1.21" type="passenger" depart="65.12" departLane="random" departPos="base" departSpeed="random">
        <route edges="edge1 edge3"/>
    </vehicle>
    <vehicle id="1.22" type="passenger" depart="65.87" departLane="random" departPos="base" departSpeed="random">
        <route edges="edge1 edge3"/>
    </vehicle>
    <vehicle id="2.30" type="passenger" depart="66.19" departLane="random" departPos="base" departSpeed="random">
        <route edges="edge1 edge4"/>
    </vehicle>
    <vehicle id="2.31" type="passenger" depart="66.39" departLane="random" departPos="base" departSpeed="random">
        <route edges="edge1 edge4"/>
    </vehicle>
    <vehicle id="31" type="passenger" depart="67.43" departLane="random" departPos="base" departSpeed="random">
        <route edges="edge1 edge2"/>
    </vehicle>
    <vehicle id="32" type="passenger" depart="68.91" departLane="random" departPos="base" departSpeed="random">
        <route edges="edge1 edge2"/>
    </vehicle>
    <vehicle id="1.23" type="passenger" depart="69.52" departLane="random" departPos="base" departSpeed="random">
        <route edges="edge1 edge3"/>
    </vehicle>
    <vehicle id="1.24" type="passenger" depart="69.61" departLane="random" departPos="base" departSpeed="random">
        <route edges="edge1 edge3"/>
    </vehicle>
    <vehicle id="33" type="passenger" depart="69.87" departLane="random" departPos="base" departSpeed="random">
        <route edges="edge1 edge2"/>
    </vehicle>
    <vehicle id="34" type="passenger" depart="69.89" departLane="random" departPos="base" departSpeed="random">
        <route edges="edge1 edge2"/>
    </vehicle>
    <vehicle id="35" type="passenger" depart="69.92" departLane="random" departPos="base" departSpeed="random">
        <route edges="edge1 edge2"/>
    </vehicle>
    <vehicle id="1.25" type="passenger" depart="70.03" departLane="random" departPos="base" departSpeed="random">
        <route edges="edge1 edge3"/>
    </vehicle>
    <vehicle id="1.26" type="passenger" depart="70.22" departLane="random" departPos="base" departSpeed="random">
        <route edges="edge1 edge3"/>
    </vehicle>
    <vehicle id="1.27" type="passenger" depart="70.24" departLane="random" departPos="base" departSpeed="random">
        <route edges="edge1 edge3"/>
    </vehicle>
    <vehicle id="1.28" type="passenger" depart="70.48" departLane="random" departPos="base" departSpeed="random">
        <route edges="edge1 edge3"/>
    </vehicle>
    <vehicle id="2.32" type="passenger" depart="71.69" departLane="random" departPos="base" departSpeed="random">
        <route edges="edge1 edge4"/>
    </vehicle>
    <vehicle id="1.29" type="passenger" depart="72.09" departLane="random" departPos="base" departSpeed="random">
        <route edges="edge1 edge3"/>
    </vehicle>
    <vehicle id="1.30" type="passenger" depart="74.66" departLane="random" departPos="base" departSpeed="random">
        <route edges="edge1 edge3"/>
    </vehicle>
    <vehicle id="1.31" type="passenger" depart="75.27" departLane="random" departPos="base" departSpeed="random">
        <route edges="edge1 edge3"/>
    </vehicle>
    <vehicle id="1.32" type="passenger" depart="78.36" departLane="random" departPos="base" departSpeed="random">
        <route edges="edge1 edge3"/>
    </vehicle>
    <vehicle id="2.33" type="passenger" depart="78.74" departLane="random" departPos="base" departSpeed="random">
        <route edges="edge1 edge4"/>
    </vehicle>
    <vehicle id="2.34" type="passenger" depart="78.75" departLane="random" departPos="base" departSpeed="random">
        <route edges="edge1 edge4"/>
    </vehicle>
    <vehicle id="36" type="passenger" depart="78.76" departLane="random" departPos="base" departSpeed="random">
        <route edges="edge1 edge2"/>
    </vehicle>
    <vehicle id="2.35" type="passenger" depart="80.02" departLane="random" departPos="base" departSpeed="random">
        <route edges="edge1 edge4"/>
    </vehicle>
    <vehicle id="1.33" type="passenger" depart="80.56" departLane="random" departPos="base" departSpeed="random">
        <route edges="edge1 edge3"/>
    </vehicle>
    <vehicle id="2.36" type="passenger" depart="81.66" departLane="random" departPos="base" departSpeed="random">
        <route edges="edge1 edge4"/>
    </vehicle>
    <vehicle id="1.34" type="passenger" depart="81.93" departLane="random" departPos="base" departSpeed="random">
        <route edges="edge1 edge3"/>
    </vehicle>
    <vehicle id="37" type="passenger" depart="82.53" departLane="random" departPos="base" departSpeed="random">
        <route edges="edge1 edge2"/>
    </vehicle>
    <vehicle id="38" type="passenger" depart="82.62" departLane="random" departPos="base" departSpeed="random">
        <route edges="edge1 edge2"/>
    </vehicle>
    <vehicle id="39" type="passenger" depart="82.75" departLane="random" departPos="base" departSpeed="random">
        <route edges="edge1 edge2"/>
    </vehicle>
    <vehicle id="40" type="passenger" depart="83.89" departLane="random" departPos="base" departSpeed="random">
        <route edges="edge1 edge2"/>
    </vehicle>
    <vehicle id="1.35" type="passenger" depart="84.20" departLane="random" departPos="base" departSpeed="random">
        <route edges="edge1 edge3"/>
    </vehicle>
    <vehicle id="41" type="passenger" depart="86.87" departLane="random" departPos="base" departSpeed="random">
        <route edges="edge1 edge2"/>
    </vehicle>
    <vehicle id="2.37" type="passenger" depart="87.27" departLane="random" departPos="base" departSpeed="random">
        <route edges="edge1 edge4"/>
    </vehicle>
    <vehicle id="42" type="passenger" depart="87.43" departLane="random" departPos="base" departSpeed="random">
        <route edges="edge1 edge2"/>
    </vehicle>
    <vehicle id="1.36" type="passenger" depart="88.33" departLane="random" departPos="base" departSpeed="random">
        <route edges="edge1 edge3"/>
    </vehicle>
    <vehicle id="43" type="passenger" depart="90.00" departLane="random" departPos="base" departSpeed="random">
        <route edges="edge1 edge2"/>
    </vehicle>
    <vehicle id="1.37" type="passenger" depart="90.72" departLane="random" departPos="base" departSpeed="random">
        <route edges="edge1 edge3"/>
    </vehicle>
    <vehicle id="2.38" type="passenger" depart="91.27" departLane="random" departPos="base" departSpeed="random">
        <route edges="edge1 edge4"/>
    </vehicle>
    <vehicle id="2.39" type="passenger" depart="92.08" departLane="random" departPos="base" departSpeed="random">
        <route edges="edge1 edge4"/>
    </vehicle>
    <vehicle id="2.40" type="passenger" depart="92.63" departLane="random" departPos="base" departSpeed="random">
        <route edges="edge1 edge4"/>
    </vehicle>
    <vehicle id="1.38" type="passenger" depart="93.50" departLane="random" departPos="base" departSpeed="random">
        <route edges="edge1 edge3"/>
    </vehicle>
    <vehicle id="2.41" type="passenger" depart="93.59" departLane="random" departPos="base" departSpeed="random">
        <route edges="edge1 edge4"/>
    </vehicle>
    <vehicle id="2.42" type="passenger" depart="96.49" departLane="random" departPos="base" departSpeed="random">
        <route edges="edge1 edge4"/>
    </vehicle>
    <vehicle id="44" type="passenger" depart="96.73" departLane="random" departPos="base" departSpeed="random">
        <route edges="edge1 edge2"/>
    </vehicle>
    <vehicle id="45" type="passenger" depart="98.93" departLane="random" departPos="base" departSpeed="random">
        <route edges="edge1 edge2"/>
    </vehicle>
    <vehicle id="1.39" type="passenger" depart="99.45" departLane="random" departPos="base" departSpeed="random">
        <route edges="edge1 edge3"/>
    </vehicle>
    <vehicle id="1.40" type="passenger" depart="99.49" departLane="random" departPos="base" departSpeed="random">
        <route edges="edge1 edge3"/>
    </vehicle>
    <vehicle id="2.43" type="passenger" depart="100.02" departLane="random" departPos="base" departSpeed="random">
        <route edges="edge1 edge4"/>
    </vehicle>
    <vehicle id="1.41" type="passenger" depart="100.29" departLane="random" departPos="base" departSpeed="random">
        <route edges="edge1 edge3"/>
    </vehicle>
    <vehicle id="1.42" type="passenger" depart="100.83" departLane="random" departPos="base" departSpeed="random">
        <route edges="edge1 edge3"/>
    </vehicle>
    <vehicle id="46" type="passenger" depart="101.07" departLane="random" departPos="base" departSpeed="random">
        <route edges="edge1 edge2"/>
    </vehicle>
    <vehicle id="1.43" type="passenger" depart="101.89" departLane="random" departPos="base" departSpeed="random">
        <route edges="edge1 edge3"/>
    </vehicle>
    <vehicle id="47" type="passenger" depart="101.93" departLane="random" departPos="base" departSpeed="random">
        <route edges="edge1 edge2"/>
    </vehicle>
    <vehicle id="1.44" type="passenger" depart="104.58" departLane="random" departPos="base" departSpeed="random">
        <route edges="edge1 edge3"/>
    </vehicle>
    <vehicle id="48" type="passenger" depart="105.41" departLane="random" departPos="base" departSpeed="random">
        <route edges="edge1 edge2"/>
    </vehicle>
    <vehicle id="2.44" type="passenger" depart="105.59" departLane="random" departPos="base" departSpeed="random">
        <route edges="edge1 edge4"/>
    </vehicle>
    <vehicle id="49" type="passenger" depart="106.23" departLane="random" departPos="base" departSpeed="random">
        <route edges="edge1 edge2"/>
    </vehicle>
    <vehicle id="2.45" type="passenger" depart="107.42" departLane="random" departPos="base" departSpeed="random">
        <route edges="edge1 edge4"/>
    </vehicle>
    <vehicle id="1.45" type="passenger" depart="107.63" departLane="random" departPos="base" departSpeed="random">
        <route edges="edge1 edge3"/>
    </vehicle>
    <vehicle id="50" type="passenger" depart="108.09" departLane="random" departPos="base" departSpeed="random">
        <route edges="edge1 edge2"/>
    </vehicle>
    <vehicle id="51" type="passenger" depart="108.54" departLane="random" departPos="base" departSpeed="random">
        <route edges="edge1 edge2"/>
    </vehicle>
    <vehicle id="52" type="passenger" depart="110.44" departLane="random" departPos="base" departSpeed="random">
        <route edges="edge1 edge2"/>
    </vehicle>
    <vehicle id="1.46" type="passenger" depart="111.16" departLane="random" departPos="base" departSpeed="random">
        <route edges="edge1 edge3"/>
    </vehicle>
    <vehicle id="2.46" type="passenger" depart="112.02" departLane="random" departPos="base" departSpeed="random">
        <route edges="edge1 edge4"/>
    </vehicle>
    <vehicle id="1.47" type="passenger" depart="112.06" departLane="random" departPos="base" departSpeed="random">
        <route edges="edge1 edge3"/>
    </vehicle>
    <vehicle id="1.48" type="passenger" depart="113.16" departLane="random" departPos="base" departSpeed="random">
        <route edges="edge1 edge3"/>
    </vehicle>
    <vehicle id="53" type="passenger" depart="113.47" departLane="random" departPos="base" departSpeed="random">
        <route edges="edge1 edge2"/>
    </vehicle>
    <vehicle id="54" type="passenger" depart="113.86" departLane="random" departPos="base" departSpeed="random">
        <route edges="edge1 edge2"/>
    </vehicle>
    <vehicle id="2.47" type="passenger" depart="114.24" departLane="random" departPos="base" departSpeed="random">
        <route edges="edge1 edge4"/>
    </vehicle>
    <vehicle id="2.48" type="passenger" depart="114.37" departLane="random" departPos="base" departSpeed="random">
        <route edges="edge1 edge4"/>
    </vehicle>
    <vehicle id="1.49" type="passenger" depart="116.09" departLane="random" departPos="base" departSpeed="random">
        <route edges="edge1 edge3"/>
    </vehicle>
    <vehicle id="55" type="passenger" depart="116.89" departLane="random" departPos="base" departSpeed="random">
        <route edges="edge1 edge2"/>
    </vehicle>
    <vehicle id="56" type="passenger" depart="117.87" departLane="random" departPos="base" departSpeed="random">
        <route edges="edge1 edge2"/>
    </vehicle>
    <vehicle id="2.49" type="passenger" depart="119.58" departLane="random" departPos="base" departSpeed="random">
        <route edges="edge1 edge4"/>
    </vehicle>
    <vehicle id="2.50" type="passenger" depart="121.18" departLane="random" departPos="base" departSpeed="random">
        <route edges="edge1 edge4"/>
    </vehicle>
    <vehicle id="57" type="passenger" depart="123.27" departLane="random" departPos="base" departSpeed="random">
        <route edges="edge1 edge2"/>
    </vehicle>
    <vehicle id="2.51" type="passenger" depart="124.16" departLane="random" departPos="base" departSpeed="random">
        <route edges="edge1 edge4"/>
    </vehicle>
    <vehicle id="2.52" type="passenger" depart="124.23" departLane="random" departPos="base" departSpeed="random">
        <route edges="edge1 edge4"/>
    </vehicle>
    <vehicle id="58" type="passenger" depart="125.52" departLane="random" departPos="base" departSpeed="random">
        <route edges="edge1 edge2"/>
    </vehicle>
    <vehicle id="2.53" type="passenger" depart="126.04" departLane="random" departPos="base" departSpeed="random">
        <route edges="edge1 edge4"/>
    </vehicle>
    <vehicle id="59" type="passenger" depart="126.41" departLane="random" departPos="base" departSpeed="random">
        <route edges="edge1 edge2"/>
    </vehicle>
    <vehicle id="1.50" type="passenger" depart="126.45" departLane="random" departPos="base" departSpeed="random">
        <route edges="edge1 edge3"/>
    </vehicle>
    <vehicle id="60" type="passenger" depart="126.49" departLane="random" departPos="base" departSpeed="random">
        <route edges="edge1 edge2"/>
    </vehicle>
    <vehicle id="61" type="passenger" depart="129.11" departLane="random" departPos="base" departSpeed="random">
        <route edges="edge1 edge2"/>
    </vehicle>
    <vehicle id="2.54" type="passenger" depart="129.14" departLane="random" departPos="base" departSpeed="random">
        <route edges="edge1 edge4"/>
    </vehicle>
    <vehicle id="62" type="passenger" depart="131.16" departLane="random" departPos="base" departSpeed="random">
        <route edges="edge1 edge2"/>
    </vehicle>
    <vehicle id="63" type="passenger" depart="135.23" departLane="random" departPos="base" departSpeed="random">
        <route edges="edge1 edge2"/>
    </vehicle>
    <vehicle id="2.55" type="passenger" depart="136.67" departLane="random" departPos="base" departSpeed="random">
        <route edges="edge1 edge4"/>
    </vehicle>
    <vehicle id="2.56" type="passenger" depart="139.18" departLane="random" departPos="base" departSpeed="random">
        <route edges="edge1 edge4"/>
    </vehicle>
    <vehicle id="64" type="passenger" depart="139.20" departLane="random" departPos="base" departSpeed="random">
        <route edges="edge1 edge2"/>
    </vehicle>
    <vehicle id="65" type="passenger" depart="139.70" departLane="random" departPos="base" departSpeed="random">
        <route edges="edge1 edge2"/>
    </vehicle>
    <vehicle id="66" type="passenger" depart="141.51" departLane="random" departPos="base" departSpeed="random">
        <route edges="edge1 edge2"/>
    </vehicle>