<edges>   
<edge id="edge-1-5" from="node1" to="node5" priority="75"   
numLanes="2" speed="15" />   
<edge id="edge-5-1" from="node5" to="node1" priority="75"   
numLanes="2" speed="15" />   
<edge id="edge-2-5" from="node2" to="node5" priority="75"   
numLanes="2" speed="15" />   
<edge id="edge-5-2" from="node5" to="node2" priority="75"   
numLanes="2" speed="15" />   
<edge id="edge-3-5" from="node3" to="node5" priority="75"   
numLanes="2" speed="15" />   
<edge id="edge-5-3" from="node5" to="node3" priority="75"   
numLanes="2" speed="15" />   
<edge id="edge-4-5" from="node4" to="node5" priority="75"   
numLanes="2" speed="15" />   
<edge id="edge-5-4" from="node5" to="node4" priority="75"   
numLanes="2" speed="15" />   
</edges>  
