<nodes>   
<node id="node1" x="1000.0" y="0.0" type="right_before_left"/>   
<node id="node2" x="0.0" y="1000.0" type="right_before_left"/>   
<node id="node3" x="1000.0" y="2000.0" type="right_before_left"/>   
<node id="node4" x="2000.0" y="1000.0" type="right_before_left"/>   
<node id="node5" x="1000.0" y="1000.0" type="right_before_left"/>   
</nodes>
