<?xml version="1.0" encoding="UTF-8"?>

<!-- generated on Wed Dec  7 20:48:16 2016 by SUMO duarouter Version 0.25.0
<?xml version="1.0" encoding="UTF-8"?>

<configuration xmlns:xsi="http://www.w3.org/2001/XMLSchema-instance" xsi:noNamespaceSchemaLocation="http://sumo.dlr.de/xsd/duarouterConfiguration.xsd">

    <input>
        <net-file value="input.net.xml"/>
        <flow-files value="input.flow.xml"/>
    </input>

    <output>
        <output-file value="input.rou.xml"/>
    </output>

    <processing>
        <randomize-flows value="true"/>
    </processing>

    <random_number>
        <random value="true"/>
    </random_number>

</configuration>
-->

<routes xmlns:xsi="http://www.w3.org/2001/XMLSchema-instance" xsi:noNamespaceSchemaLocation="http://sumo.dlr.de/xsd/routes_file.xsd">
    <vType id="passenger" length="4.30" minGap="2.50" maxSpeed="23.33" speedFactor="1.00" speedDev="0.10" color="yellow">
        <carFollowing-Krauss accel="2.90" decel="7.50" sigma="0.50"/>
    </vType>
    <vehicle id="100" type="passenger" depart="1.06" departLane="random" departPos="base" departSpeed="random">
        <route edges="edge1 edge3"/>
    </vehicle>
    <vehicle id="0" type="passenger" depart="3.81" departLane="random" departPos="base" departSpeed="random">
        <route edges="edge1 edge2"/>
    </vehicle>
    <vehicle id="1" type="passenger" depart="4.85" departLane="random" departPos="base" departSpeed="random">
        <route edges="edge1 edge2"/>
    </vehicle>
    <vehicle id="2" type="passenger" depart="5.96" departLane="random" departPos="base" departSpeed="random">
        <route edges="edge1 edge2"/>
    </vehicle>
    <vehicle id="101" type="passenger" depart="8.21" departLane="random" departPos="base" departSpeed="random">
        <route edges="edge1 edge3"/>
    </vehicle>
    <vehicle id="50" type="passenger" depart="9.94" departLane="random" departPos="base" departSpeed="random">
        <route edges="edge1 edge4"/>
    </vehicle>
    <vehicle id="3" type="passenger" depart="10.16" departLane="random" departPos="base" departSpeed="random">
        <route edges="edge1 edge2"/>
    </vehicle>
    <vehicle id="102" type="passenger" depart="10.67" departLane="random" departPos="base" departSpeed="random">
        <route edges="edge1 edge3"/>
    </vehicle>
    <vehicle id="51" type="passenger" depart="11.05" departLane="random" departPos="base" departSpeed="random">
        <route edges="edge1 edge4"/>
    </vehicle>
    <vehicle id="4" type="passenger" depart="11.59" departLane="random" departPos="base" departSpeed="random">
        <route edges="edge1 edge2"/>
    </vehicle>
    <vehicle id="103" type="passenger" depart="13.99" departLane="random" departPos="base" departSpeed="random">
        <route edges="edge1 edge3"/>
    </vehicle>
    <vehicle id="52" type="passenger" depart="14.03" departLane="random" departPos="base" departSpeed="random">
        <route edges="edge1 edge4"/>
    </vehicle>
    <vehicle id="53" type="passenger" depart="14.64" departLane="random" departPos="base" departSpeed="random">
        <route edges="edge1 edge4"/>
    </vehicle>
    <vehicle id="54" type="passenger" depart="14.93" departLane="random" departPos="base" departSpeed="random">
        <route edges="edge1 edge4"/>
    </vehicle>
    <vehicle id="55" type="passenger" depart="15.64" departLane="random" departPos="base" departSpeed="random">
        <route edges="edge1 edge4"/>
    </vehicle>
    <vehicle id="56" type="passenger" depart="21.46" departLane="random" departPos="base" departSpeed="random">
        <route edges="edge1 edge4"/>
    </vehicle>
    <vehicle id="104" type="passenger" depart="24.55" departLane="random" departPos="base" departSpeed="random">
        <route edges="edge1 edge3"/>
    </vehicle>
    <vehicle id="105" type="passenger" depart="25.44" departLane="random" departPos="base" departSpeed="random">
        <route edges="edge1 edge3"/>
    </vehicle>
    <vehicle id="5" type="passenger" depart="27.10" departLane="random" departPos="base" departSpeed="random">
        <route edges="edge1 edge2"/>
    </vehicle>
    <vehicle id="57" type="passenger" depart="27.50" departLane="random" departPos="base" departSpeed="random">
        <route edges="edge1 edge4"/>
    </vehicle>
    <vehicle id="106" type="passenger" depart="27.87" departLane="random" departPos="base" departSpeed="random">
        <route edges="edge1 edge3"/>
    </vehicle>
    <vehicle id="58" type="passenger" depart="28.71" departLane="random" departPos="base" departSpeed="random">
        <route edges="edge1 edge4"/>
    </vehicle>
    <vehicle id="107" type="passenger" depart="29.62" departLane="random" departPos="base" departSpeed="random">
        <route edges="edge1 edge3"/>
    </vehicle>
    <vehicle id="6" type="passenger" depart="30.20" departLane="random" departPos="base" departSpeed="random">
        <route edges="edge1 edge2"/>
    </vehicle>
    <vehicle id="59" type="passenger" depart="31.43" departLane="random" departPos="base" departSpeed="random">
        <route edges="edge1 edge4"/>
    </vehicle>
    <vehicle id="108" type="passenger" depart="31.50" departLane="random" departPos="base" departSpeed="random">
        <route edges="edge1 edge3"/>
    </vehicle>
    <vehicle id="109" type="passenger" depart="31.95" departLane="random" departPos="base" departSpeed="random">
        <route edges="edge1 edge3"/>
    </vehicle>
    <vehicle id="60" type="passenger" depart="34.21" departLane="random" departPos="base" departSpeed="random">
        <route edges="edge1 edge4"/>
    </vehicle>
    <vehicle id="61" type="passenger" depart="35.03" departLane="random" departPos="base" departSpeed="random">
        <route edges="edge1 edge4"/>
    </vehicle>
    <vehicle id="62" type="passenger" depart="36.40" departLane="random" departPos="base" departSpeed="random">
        <route edges="edge1 edge4"/>
    </vehicle>
    <vehicle id="110" type="passenger" depart="37.73" departLane="random" departPos="base" departSpeed="random">
        <route edges="edge1 edge3"/>
    </vehicle>
    <vehicle id="7" type="passenger" depart="37.86" departLane="random" departPos="base" departSpeed="random">
        <route edges="edge1 edge2"/>
    </vehicle>
    <vehicle id="63" type="passenger" depart="40.51" departLane="random" departPos="base" departSpeed="random">
        <route edges="edge1 edge4"/>
    </vehicle>
    <vehicle id="64" type="passenger" depart="41.11" departLane="random" departPos="base" departSpeed="random">
        <route edges="edge1 edge4"/>
    </vehicle>
    <vehicle id="65" type="passenger" depart="43.38" departLane="random" departPos="base" departSpeed="random">
        <route edges="edge1 edge4"/>
    </vehicle>
    <vehicle id="66" type="passenger" depart="44.09" departLane="random" departPos="base" departSpeed="random">
        <route edges="edge1 edge4"/>
    </vehicle>
    <vehicle id="67" type="passenger" depart="47.94" departLane="random" departPos="base" departSpeed="random">
        <route edges="edge1 edge4"/>
    </vehicle>
    <vehicle id="111" type="passenger" depart="53.65" departLane="random" departPos="base" departSpeed="random">
        <route edges="edge1 edge3"/>
    </vehicle>
    <vehicle id="8" type="passenger" depart="54.83" departLane="random" departPos="base" departSpeed="random">
        <route edges="edge1 edge2"/>
    </vehicle>
    <vehicle id="112" type="passenger" depart="54.88" departLane="random" departPos="base" departSpeed="random">
        <route edges="edge1 edge3"/>
    </vehicle>
    <vehicle id="9" type="passenger" depart="58.03" departLane="random" departPos="base" departSpeed="random">
        <route edges="edge1 edge2"/>
    </vehicle>
    <vehicle id="68" type="passenger" depart="58.24" departLane="random" departPos="base" departSpeed="random">
        <route edges="edge1 edge4"/>
    </vehicle>
    <vehicle id="10" type="passenger" depart="59.51" departLane="random" departPos="base" departSpeed="random">
        <route edges="edge1 edge2"/>
    </vehicle>
    <vehicle id="11" type="passenger" depart="61.35" departLane="random" departPos="base" departSpeed="random">
        <route edges="edge1 edge2"/>
    </vehicle>
    <vehicle id="69" type="passenger" depart="62.57" departLane="random" departPos="base" departSpeed="random">
        <route edges="edge1 edge4"/>
    </vehicle>
    <vehicle id="12" type="passenger" depart="63.00" departLane="random" departPos="base" departSpeed="random">
        <route edges="edge1 edge2"/>
    </vehicle>
    <vehicle id="113" type="passenger" depart="65.64" departLane="random" departPos="base" departSpeed="random">
        <route edges="edge1 edge3"/>
    </vehicle>
    <vehicle id="13" type="passenger" depart="66.02" departLane="random" departPos="base" departSpeed="random">
        <route edges="edge1 edge2"/>
    </vehicle>
    <vehicle id="14" type="passenger" depart="66.52" departLane="random" departPos="base" departSpeed="random">
        <route edges="edge1 edge2"/>
    </vehicle>
    <vehicle id="70" type="passenger" depart="70.70" departLane="random" departPos="base" departSpeed="random">
        <route edges="edge1 edge4"/>
    </vehicle>
    <vehicle id="71" type="passenger" depart="71.00" departLane="random" departPos="base" departSpeed="random">
        <route edges="edge1 edge4"/>
    </vehicle>
    <vehicle id="15" type="passenger" depart="71.19" departLane="random" departPos="base" departSpeed="random">
        <route edges="edge1 edge2"/>
    </vehicle>
    <vehicle id="114" type="passenger" depart="71.51" departLane="random" departPos="base" departSpeed="random">
        <route edges="edge1 edge3"/>
    </vehicle>
    <vehicle id="72" type="passenger" depart="72.49" departLane="random" departPos="base" departSpeed="random">
        <route edges="edge1 edge4"/>
    </vehicle>
    <vehicle id="115" type="passenger" depart="72.88" departLane="random" departPos="base" departSpeed="random">
        <route edges="edge1 edge3"/>
    </vehicle>
    <vehicle id="73" type="passenger" depart="77.17" departLane="random" departPos="base" departSpeed="random">
        <route edges="edge1 edge4"/>
    </vehicle>
    <vehicle id="116" type="passenger" depart="79.72" departLane="random" departPos="base" departSpeed="random">
        <route edges="edge1 edge3"/>
    </vehicle>
    <vehicle id="74" type="passenger" depart="81.18" departLane="random" departPos="base" departSpeed="random">
        <route edges="edge1 edge4"/>
    </vehicle>
    <vehicle id="16" type="passenger" depart="82.25" departLane="random" departPos="base" departSpeed="random">
        <route edges="edge1 edge2"/>
    </vehicle>
    <vehicle id="117" type="passenger" depart="83.88" departLane="random" departPos="base" departSpeed="random">
        <route edges="edge1 edge3"/>
    </vehicle>
    <vehicle id="118" type="passenger" depart="88.37" departLane="random" departPos="base" departSpeed="random">
        <route edges="edge1 edge3"/>
    </vehicle>
    <vehicle id="119" type="passenger" depart="91.87" departLane="random" departPos="base" departSpeed="random">
        <route edges="edge1 edge3"/>
    </vehicle>
    <vehicle id="75" type="passenger" depart="94.82" departLane="random" departPos="base" departSpeed="random">
        <route edges="edge1 edge4"/>
    </vehicle>
    <vehicle id="17" type="passenger" depart="99.45" departLane="random" departPos="base" departSpeed="random">
        <route edges="edge1 edge2"/>
    </vehicle>
    <vehicle id="120" type="passenger" depart="102.92" departLane="random" departPos="base" departSpeed="random">
        <route edges="edge1 edge3"/>
    </vehicle>
    <vehicle id="121" type="passenger" depart="104.17" departLane="random" departPos="base" departSpeed="random">
        <route edges="edge1 edge3"/>
    </vehicle>
    <vehicle id="76" type="passenger" depart="104.56" departLane="random" departPos="base" departSpeed="random">
        <route edges="edge1 edge4"/>
    </vehicle>
    <vehicle id="77" type="passenger" depart="106.00" departLane="random" departPos="base" departSpeed="random">
        <route edges="edge1 edge4"/>
    </vehicle>
    <vehicle id="78" type="passenger" depart="106.76" departLane="random" departPos="base" departSpeed="random">
        <route edges="edge1 edge4"/>
    </vehicle>
    <vehicle id="122" type="passenger" depart="107.26" departLane="random" departPos="base" departSpeed="random">
        <route edges="edge1 edge3"/>
    </vehicle>
    <vehicle id="79" type="passenger" depart="108.35" departLane="random" departPos="base" departSpeed="random">
        <route edges="edge1 edge4"/>
    </vehicle>
    <vehicle id="18" type="passenger" depart="109.71" departLane="random" departPos="base" departSpeed="random">
        <route edges="edge1 edge2"/>
    </vehicle>
    <vehicle id="123" type="passenger" depart="109.75" departLane="random" departPos="base" departSpeed="random">
        <route edges="edge1 edge3"/>
    </vehicle>
    <vehicle id="124" type="passenger" depart="118.41" departLane="random" departPos="base" departSpeed="random">
        <route edges="edge1 edge3"/>
    </vehicle>
    <vehicle id="19" type="passenger" depart="119.79" departLane="random" departPos="base" departSpeed="random">
        <route edges="edge1 edge2"/>
    </vehicle>
    <vehicle id="125" type="passenger" depart="122.41" departLane="random" departPos="base" departSpeed="random">
        <route edges="edge1 edge3"/>
    </vehicle>
    <vehicle id="20" type="passenger" depart="123.14" departLane="random" departPos="base" departSpeed="random">
        <route edges="edge1 edge2"/>
    </vehicle>
    <vehicle id="21" type="passenger" depart="123.78" departLane="random" departPos="base" departSpeed="random">
        <route edges="edge1 edge2"/>
    </vehicle>
    <vehicle id="80" type="passenger" depart="124.71" departLane="random" departPos="base" departSpeed="random">
        <route edges="edge1 edge4"/>
    </vehicle>
    <vehicle id="22" type="passenger" depart="127.91" departLane="random" departPos="base" departSpeed="random">
        <route edges="edge1 edge2"/>
    </vehicle>
    <vehicle id="126" type="passenger" depart="128.25" departLane="random" departPos="base" departSpeed="random">
        <route edges="edge1 edge3"/>
    </vehicle>
    <vehicle id="127" type="passenger" depart="128.82" departLane="random" departPos="base" departSpeed="random">
        <route edges="edge1 edge3"/>
    </vehicle>
    <vehicle id="128" type="passenger" depart="129.13" departLane="random" departPos="base" departSpeed="random">
        <route edges="edge1 edge3"/>
    </vehicle>
    <vehicle id="129" type="passenger" depart="136.24" departLane="random" departPos="base" departSpeed="random">
        <route edges="edge1 edge3"/>
    </vehicle>
    <vehicle id="130" type="passenger" depart="136.55" departLane="random" departPos="base" departSpeed="random">
        <route edges="edge1 edge3"/>
    </vehicle>
    <vehicle id="81" type="passenger" depart="136.61" departLane="random" departPos="base" departSpeed="random">
        <route edges="edge1 edge4"/>
    </vehicle>
    <vehicle id="23" type="passenger" depart="137.01" departLane="random" departPos="base" departSpeed="random">
        <route edges="edge1 edge2"/>
    </vehicle>
    <vehicle id="24" type="passenger" depart="137.87" departLane="random" departPos="base" departSpeed="random">
        <route edges="edge1 edge2"/>
    </vehicle>
    <vehicle id="82" type="passenger" depart="140.25" departLane="random" departPos="base" departSpeed="random">
        <route edges="edge1 edge4"/>
    </vehicle>
    <vehicle id="131" type="passenger" depart="140.31" departLane="random" departPos="base" departSpeed="random">
        <route edges="edge1 edge3"/>
    </vehicle>
    <vehicle id="25" type="passenger" depart="144.56" departLane="random" departPos="base" departSpeed="random">
        <route edges="edge1 edge2"/>
    </vehicle>
    <vehicle id="26" type="passenger" depart="147.36" departLane="random" departPos="base" departSpeed="random">
        <route edges="edge1 edge2"/>
    </vehicle>
    <vehicle id="132" type="passenger" depart="147.62" departLane="random" departPos="base" departSpeed="random">
        <route edges="edge1 edge3"/>
    </vehicle>
    <vehicle id="27" type="passenger" depart="148.39" departLane="random" departPos="base" departSpeed="random">
        <route edges="edge1 edge2"/>
    </vehicle>
    <vehicle id="83" type="passenger" depart="150.34" departLane="random" departPos="base" departSpeed="random">
        <route edges="edge1 edge4"/>
    </vehicle>
    <vehicle id="28" type="passenger" depart="150.61" departLane="random" departPos="base" departSpeed="random">
        <route edges="edge1 edge2"/>
    </vehicle>
    <vehicle id="29" type="passenger" depart="153.16" departLane="random" departPos="base" departSpeed="random">
        <route edges="edge1 edge2"/>
    </vehicle>
    <vehicle id="133" type="passenger" depart="156.03" departLane="random" departPos="base" departSpeed="random">
        <route edges="edge1 edge3"/>
    </vehicle>
    <vehicle id="30" type="passenger" depart="156.34" departLane="random" departPos="base" departSpeed="random">
        <route edges="edge1 edge2"/>
    </vehicle>
    <vehicle id="134" type="passenger" depart="160.35" departLane="random" departPos="base" departSpeed="random">
        <route edges="edge1 edge3"/>
    </vehicle>
    <vehicle id="135" type="passenger" depart="162.53" departLane="random" departPos="base" departSpeed="random">
        <route edges="edge1 edge3"/>
    </vehicle>
    <vehicle id="31" type="passenger" depart="162.60" departLane="random" departPos="base" departSpeed="random">
        <route edges="edge1 edge2"/>
    </vehicle>
    <vehicle id="32" type="passenger" depart="163.87" departLane="random" departPos="base" departSpeed="random">
        <route edges="edge1 edge2"/>
    </vehicle>
    <vehicle id="33" type="passenger" depart="166.19" departLane="random" departPos="base" departSpeed="random">
        <route edges="edge1 edge2"/>
    </vehicle>
    <vehicle id="84" type="passenger" depart="170.24" departLane="random" departPos="base" departSpeed="random">
        <route edges="edge1 edge4"/>
    </vehicle>
    <vehicle id="34" type="passenger" depart="173.73" departLane="random" departPos="base" departSpeed="random">
        <route edges="edge1 edge2"/>
    </vehicle>
    <vehicle id="35" type="passenger" depart="174.09" departLane="random" departPos="base" departSpeed="random">
        <route edges="edge1 edge2"/>
    </vehicle>
    <vehicle id="85" type="passenger" depart="176.01" departLane="random" departPos="base" departSpeed="random">
        <route edges="edge1 edge4"/>
    </vehicle>
    <vehicle id="36" type="passenger" depart="181.16" departLane="random" departPos="base" departSpeed="random">
        <route edges="edge1 edge2"/>
    </vehicle>
    <vehicle id="37" type="passenger" depart="182.86" departLane="random" departPos="base" departSpeed="random">
        <route edges="edge1 edge2"/>
    </vehicle>
    <vehicle id="38" type="passenger" depart="183.17" departLane="random" departPos="base" departSpeed="random">
        <route edges="edge1 edge2"/>
    </vehicle>
    <vehicle id="136" type="passenger" depart="183.26" departLane="random" departPos="base" departSpeed="random">
        <route edges="edge1 edge3"/>
    </vehicle>
    <vehicle id="137" type="passenger" depart="184.41" departLane="random" departPos="base" departSpeed="random">
        <route edges="edge1 edge3"/>
    </vehicle>
    <vehicle id="86" type="passenger" depart="185.23" departLane="random" departPos="base" departSpeed="random">
        <route edges="edge1 edge4"/>
    </vehicle>
    <vehicle id="87" type="passenger" depart="188.34" departLane="random" departPos="base" departSpeed="random">
        <route edges="edge1 edge4"/>
    </vehicle>
    <vehicle id="88" type="passenger" depart="189.25" departLane="random" departPos="base" departSpeed="random">
        <route edges="edge1 edge4"/>
    </vehicle>
    <vehicle id="39" type="passenger" depart="190.36" departLane="random" departPos="base" departSpeed="random">
        <route edges="edge1 edge2"/>
    </vehicle>
    <vehicle id="89" type="passenger" depart="191.18" departLane="random" departPos="base" departSpeed="random">
        <route edges="edge1 edge4"/>
    </vehicle>
    <vehicle id="138" type="passenger" depart="192.66" departLane="random" departPos="base" departSpeed="random">
        <route edges="edge1 edge3"/>
    </vehicle>
    <vehicle id="139" type="passenger" depart="193.26" departLane="random" departPos="base" departSpeed="random">
        <route edges="edge1 edge3"/>
    </vehicle>
    <vehicle id="140" type="passenger" depart="194.64" departLane="random" departPos="base" departSpeed="random">
        <route edges="edge1 edge3"/>
    </vehicle>
    <vehicle id="141" type="passenger" depart="196.29" departLane="random" departPos="base" departSpeed="random">
        <route edges="edge1 edge3"/>
    </vehicle>
    <vehicle id="40" type="passenger" depart="198.98" departLane="random" departPos="base" departSpeed="random">
        <route edges="edge1 edge2"/>
    </vehicle>
    <vehicle id="90" type="passenger" depart="202.14" departLane="random" departPos="base" departSpeed="random">
        <route edges="edge1 edge4"/>
    </vehicle>
    <vehicle id="41" type="passenger" depart="203.93" departLane="random" departPos="base" departSpeed="random">
        <route edges="edge1 edge2"/>
    </vehicle>
    <vehicle id="91" type="passenger" depart="204.95" departLane="random" departPos="base" departSpeed="random">
        <route edges="edge1 edge4"/>
    </vehicle>
    <vehicle id="42" type="passenger" depart="205.30" departLane="random" departPos="base" departSpeed="random">
        <route edges="edge1 edge2"/>
    </vehicle>
    <vehicle id="142" type="passenger" depart="209.43" departLane="random" departPos="base" departSpeed="random">
        <route edges="edge1 edge3"/>
    </vehicle>
    <vehicle id="43" type="passenger" depart="210.96" departLane="random" departPos="base" departSpeed="random">
        <route edges="edge1 edge2"/>
    </vehicle>
    <vehicle id="143" type="passenger" depart="216.92" departLane="random" departPos="base" departSpeed="random">
        <route edges="edge1 edge3"/>
    </vehicle>
    <vehicle id="144" type="passenger" depart="218.51" departLane="random" departPos="base" departSpeed="random">
        <route edges="edge1 edge3"/>
    </vehicle>
    <vehicle id="145" type="passenger" depart="219.85" departLane="random" departPos="base" departSpeed="random">
        <route edges="edge1 edge3"/>
    </vehicle>
    <vehicle id="44" type="passenger" depart="220.92" departLane="random" departPos="base" departSpeed="random">
        <route edges="edge1 edge2"/>
    </vehicle>
    <vehicle id="45" type="passenger" depart="221.28" departLane="random" departPos="base" departSpeed="random">
        <route edges="edge1 edge2"/>
    </vehicle>
    <vehicle id="146" type="passenger" depart="223.21" departLane="random" departPos="base" departSpeed="random">
        <route edges="edge1 edge3"/>
    </vehicle>
    <vehicle id="147" type="passenger" depart="225.38" departLane="random" departPos="base" departSpeed="random">
        <route edges="edge1 edge3"/>
    </vehicle>
    <vehicle id="46" type="passenger" depart="226.02" departLane="random" departPos="base" departSpeed="random">
        <route edges="edge1 edge2"/>
    </vehicle>
    <vehicle id="47" type="passenger" depart="226.31" departLane="random" departPos="base" departSpeed="random">
        <route edges="edge1 edge2"/>
    </vehicle>
    <vehicle id="92" type="passenger" depart="226.38" departLane="random" departPos="base" departSpeed="random">
        <route edges="edge1 edge4"/>
    </vehicle>
    <vehicle id="93" type="passenger" depart="228.33" departLane="random" departPos="base" departSpeed="random">
        <route edges="edge1 edge4"/>
    </vehicle>
    <vehicle id="94" type="passenger" depart="228.58" departLane="random" departPos="base" departSpeed="random">
        <route edges="edge1 edge4"/>
    </vehicle>
    <vehicle id="95" type="passenger" depart="230.91" departLane="random" departPos="base" departSpeed="random">
        <route edges="edge1 edge4"/>
    </vehicle>
    <vehicle id="96" type="passenger" depart="234.51" departLane="random" departPos="base" departSpeed="random">
        <route edges="edge1 edge4"/>
    </vehicle>
    <vehicle id="97" type="passenger" depart="234.79" departLane="random" departPos="base" departSpeed="random">
        <route edges="edge1 edge4"/>
    </vehicle>
    <vehicle id="148" type="passenger" depart="240.24" departLane="random" departPos="base" departSpeed="random">
        <route edges="edge1 edge3"/>
    </vehicle>
    <vehicle id="98" type="passenger" depart="242.24" departLane="random" departPos="base" departSpeed="random">
        <route edges="edge1 edge4"/>
    </vehicle>
    <vehicle id="48" type="passenger" depart="243.30" departLane="random" departPos="base" departSpeed="random">
        <route edges="edge1 edge2"/>
    </vehicle>
    <vehicle id="149" type="passenger" depart="244.26" departLane="random" departPos="base" departSpeed="random">
        <route edges="edge1 edge3"/>
    </vehicle>
    <vehicle id="49" type="passenger" depart="247.47" departLane="random" departPos="base" departSpeed="random">
        <route edges="edge1 edge2"/>
    </vehicle>
    <vehicle id="99" type="passenger" depart="249.29" departLane="random" departPos="base" departSpeed="random">
        <route edges="edge1 edge4"/>
    </vehicle>
</routes>
