<?xml version="1.0" encoding="UTF-8"?>

<!-- generated on Fri Nov 25 22:05:08 2016 by SUMO duarouter Version 0.25.0
<?xml version="1.0" encoding="UTF-8"?>

<configuration xmlns:xsi="http://www.w3.org/2001/XMLSchema-instance" xsi:noNamespaceSchemaLocation="http://sumo.dlr.de/xsd/duarouterConfiguration.xsd">

    <input>
        <net-file value="input.net.xml"/>
        <flow-files value="input.flow.xml"/>
    </input>

    <output>
        <output-file value="input.rou.xml"/>
    </output>

    <processing>
        <randomize-flows value="true"/>
    </processing>

    <random_number>
        <random value="true"/>
    </random_number>

</configuration>
-->

<routes xmlns:xsi="http://www.w3.org/2001/XMLSchema-instance" xsi:noNamespaceSchemaLocation="http://sumo.dlr.de/xsd/routes_file.xsd">
    <vType id="passenger" length="4.30" minGap="2.50" maxSpeed="23.33" speedFactor="1.00" speedDev="0.10" color="yellow">
        <carFollowing-Krauss accel="2.90" decel="7.50" sigma="0.50"/>
    </vType>
    <vehicle id="200" type="passenger" depart="0.09" departLane="random" departPos="base" departSpeed="random">
        <route edges="edge1 edge3"/>
    </vehicle>
    <vehicle id="201" type="passenger" depart="0.28" departLane="random" departPos="base" departSpeed="random">
        <route edges="edge1 edge3"/>
    </vehicle>
    <vehicle id="202" type="passenger" depart="0.89" departLane="random" departPos="base" departSpeed="random">
        <route edges="edge1 edge3"/>
    </vehicle>
    <vehicle id="203" type="passenger" depart="0.96" departLane="random" departPos="base" departSpeed="random">
        <route edges="edge1 edge3"/>
    </vehicle>
    <vehicle id="400" type="passenger" depart="1.54" departLane="random" departPos="base" departSpeed="random">
        <route edges="edge1 edge4"/>
    </vehicle>
    <vehicle id="401" type="passenger" depart="1.60" departLane="random" departPos="base" departSpeed="random">
        <route edges="edge1 edge4"/>
    </vehicle>
    <vehicle id="402" type="passenger" depart="2.18" departLane="random" departPos="base" departSpeed="random">
        <route edges="edge1 edge4"/>
    </vehicle>
    <vehicle id="204" type="passenger" depart="2.72" departLane="random" departPos="base" departSpeed="random">
        <route edges="edge1 edge3"/>
    </vehicle>
    <vehicle id="205" type="passenger" depart="3.31" departLane="random" departPos="base" departSpeed="random">
        <route edges="edge1 edge3"/>
    </vehicle>
    <vehicle id="206" type="passenger" depart="3.59" departLane="random" departPos="base" departSpeed="random">
        <route edges="edge1 edge3"/>
    </vehicle>
    <vehicle id="207" type="passenger" depart="3.74" departLane="random" departPos="base" departSpeed="random">
        <route edges="edge1 edge3"/>
    </vehicle>
    <vehicle id="208" type="passenger" depart="4.08" departLane="random" departPos="base" departSpeed="random">
        <route edges="edge1 edge3"/>
    </vehicle>
    <vehicle id="403" type="passenger" depart="4.63" departLane="random" departPos="base" departSpeed="random">
        <route edges="edge1 edge4"/>
    </vehicle>
    <vehicle id="404" type="passenger" depart="5.70" departLane="random" departPos="base" departSpeed="random">
        <route edges="edge1 edge4"/>
    </vehicle>
    <vehicle id="209" type="passenger" depart="7.14" departLane="random" departPos="base" departSpeed="random">
        <route edges="edge1 edge3"/>
    </vehicle>
    <vehicle id="210" type="passenger" depart="8.15" departLane="random" departPos="base" departSpeed="random">
        <route edges="edge1 edge3"/>
    </vehicle>
    <vehicle id="0" type="passenger" depart="8.58" departLane="random" departPos="base" departSpeed="random">
        <route edges="edge1 edge2"/>
    </vehicle>
    <vehicle id="1" type="passenger" depart="9.68" departLane="random" departPos="base" departSpeed="random">
        <route edges="edge1 edge2"/>
    </vehicle>
    <vehicle id="2" type="passenger" depart="9.77" departLane="random" departPos="base" departSpeed="random">
        <route edges="edge1 edge2"/>
    </vehicle>
    <vehicle id="3" type="passenger" depart="10.40" departLane="random" departPos="base" departSpeed="random">
        <route edges="edge1 edge2"/>
    </vehicle>
    <vehicle id="405" type="passenger" depart="10.42" departLane="random" departPos="base" departSpeed="random">
        <route edges="edge1 edge4"/>
    </vehicle>
    <vehicle id="406" type="passenger" depart="11.30" departLane="random" departPos="base" departSpeed="random">
        <route edges="edge1 edge4"/>
    </vehicle>
    <vehicle id="407" type="passenger" depart="11.68" departLane="random" departPos="base" departSpeed="random">
        <route edges="edge1 edge4"/>
    </vehicle>
    <vehicle id="211" type="passenger" depart="11.83" departLane="random" departPos="base" departSpeed="random">
        <route edges="edge1 edge3"/>
    </vehicle>
    <vehicle id="212" type="passenger" depart="11.94" departLane="random" departPos="base" departSpeed="random">
        <route edges="edge1 edge3"/>
    </vehicle>
    <vehicle id="4" type="passenger" depart="12.01" departLane="random" departPos="base" departSpeed="random">
        <route edges="edge1 edge2"/>
    </vehicle>
    <vehicle id="408" type="passenger" depart="12.11" departLane="random" departPos="base" departSpeed="random">
        <route edges="edge1 edge4"/>
    </vehicle>
    <vehicle id="5" type="passenger" depart="12.21" departLane="random" departPos="base" departSpeed="random">
        <route edges="edge1 edge2"/>
    </vehicle>
    <vehicle id="213" type="passenger" depart="12.34" departLane="random" departPos="base" departSpeed="random">
        <route edges="edge1 edge3"/>
    </vehicle>
    <vehicle id="409" type="passenger" depart="12.85" departLane="random" departPos="base" departSpeed="random">
        <route edges="edge1 edge4"/>
    </vehicle>
    <vehicle id="6" type="passenger" depart="13.69" departLane="random" departPos="base" departSpeed="random">
        <route edges="edge1 edge2"/>
    </vehicle>
    <vehicle id="410" type="passenger" depart="14.27" departLane="random" departPos="base" departSpeed="random">
        <route edges="edge1 edge4"/>
    </vehicle>
    <vehicle id="214" type="passenger" depart="15.51" departLane="random" departPos="base" departSpeed="random">
        <route edges="edge1 edge3"/>
    </vehicle>
    <vehicle id="7" type="passenger" depart="17.55" departLane="random" departPos="base" departSpeed="random">
        <route edges="edge1 edge2"/>
    </vehicle>
    <vehicle id="8" type="passenger" depart="17.64" departLane="random" departPos="base" departSpeed="random">
        <route edges="edge1 edge2"/>
    </vehicle>
    <vehicle id="9" type="passenger" depart="17.85" departLane="random" departPos="base" departSpeed="random">
        <route edges="edge1 edge2"/>
    </vehicle>
    <vehicle id="411" type="passenger" depart="18.99" departLane="random" departPos="base" departSpeed="random">
        <route edges="edge1 edge4"/>
    </vehicle>
    <vehicle id="10" type="passenger" depart="19.17" departLane="random" departPos="base" departSpeed="random">
        <route edges="edge1 edge2"/>
    </vehicle>
    <vehicle id="412" type="passenger" depart="19.18" departLane="random" departPos="base" departSpeed="random">
        <route edges="edge1 edge4"/>
    </vehicle>
    <vehicle id="215" type="passenger" depart="19.82" departLane="random" departPos="base" departSpeed="random">
        <route edges="edge1 edge3"/>
    </vehicle>
    <vehicle id="216" type="passenger" depart="20.43" departLane="random" departPos="base" departSpeed="random">
        <route edges="edge1 edge3"/>
    </vehicle>
    <vehicle id="413" type="passenger" depart="20.52" departLane="random" departPos="base" departSpeed="random">
        <route edges="edge1 edge4"/>
    </vehicle>
    <vehicle id="414" type="passenger" depart="20.89" departLane="random" departPos="base" departSpeed="random">
        <route edges="edge1 edge4"/>
    </vehicle>
    <vehicle id="217" type="passenger" depart="21.36" departLane="random" departPos="base" departSpeed="random">
        <route edges="edge1 edge3"/>
    </vehicle>
    <vehicle id="11" type="passenger" depart="21.79" departLane="random" departPos="base" departSpeed="random">
        <route edges="edge1 edge2"/>
    </vehicle>
    <vehicle id="12" type="passenger" depart="22.42" departLane="random" departPos="base" departSpeed="random">
        <route edges="edge1 edge2"/>
    </vehicle>
    <vehicle id="218" type="passenger" depart="22.92" departLane="random" departPos="base" departSpeed="random">
        <route edges="edge1 edge3"/>
    </vehicle>
    <vehicle id="13" type="passenger" depart="23.04" departLane="random" departPos="base" departSpeed="random">
        <route edges="edge1 edge2"/>
    </vehicle>
    <vehicle id="415" type="passenger" depart="23.12" departLane="random" departPos="base" departSpeed="random">
        <route edges="edge1 edge4"/>
    </vehicle>
    <vehicle id="416" type="passenger" depart="23.18" departLane="random" departPos="base" departSpeed="random">
        <route edges="edge1 edge4"/>
    </vehicle>
    <vehicle id="14" type="passenger" depart="23.41" departLane="random" departPos="base" departSpeed="random">
        <route edges="edge1 edge2"/>
    </vehicle>
    <vehicle id="219" type="passenger" depart="23.60" departLane="random" departPos="base" departSpeed="random">
        <route edges="edge1 edge3"/>
    </vehicle>
    <vehicle id="15" type="passenger" depart="23.73" departLane="random" departPos="base" departSpeed="random">
        <route edges="edge1 edge2"/>
    </vehicle>
    <vehicle id="417" type="passenger" depart="24.07" departLane="random" departPos="base" departSpeed="random">
        <route edges="edge1 edge4"/>
    </vehicle>
    <vehicle id="16" type="passenger" depart="24.16" departLane="random" departPos="base" departSpeed="random">
        <route edges="edge1 edge2"/>
    </vehicle>
    <vehicle id="418" type="passenger" depart="24.96" departLane="random" departPos="base" departSpeed="random">
        <route edges="edge1 edge4"/>
    </vehicle>
    <vehicle id="17" type="passenger" depart="25.41" departLane="random" departPos="base" departSpeed="random">
        <route edges="edge1 edge2"/>
    </vehicle>
    <vehicle id="220" type="passenger" depart="25.53" departLane="random" departPos="base" departSpeed="random">
        <route edges="edge1 edge3"/>
    </vehicle>
    <vehicle id="18" type="passenger" depart="25.57" departLane="random" departPos="base" departSpeed="random">
        <route edges="edge1 edge2"/>
    </vehicle>
    <vehicle id="419" type="passenger" depart="25.61" departLane="random" departPos="base" departSpeed="random">
        <route edges="edge1 edge4"/>
    </vehicle>
    <vehicle id="19" type="passenger" depart="25.70" departLane="random" departPos="base" departSpeed="random">
        <route edges="edge1 edge2"/>
    </vehicle>
    <vehicle id="420" type="passenger" depart="25.96" departLane="random" departPos="base" departSpeed="random">
        <route edges="edge1 edge4"/>
    </vehicle>
    <vehicle id="20" type="passenger" depart="26.05" departLane="random" departPos="base" departSpeed="random">
        <route edges="edge1 edge2"/>
    </vehicle>
    <vehicle id="421" type="passenger" depart="26.14" departLane="random" departPos="base" departSpeed="random">
        <route edges="edge1 edge4"/>
    </vehicle>
    <vehicle id="422" type="passenger" depart="26.20" departLane="random" departPos="base" departSpeed="random">
        <route edges="edge1 edge4"/>
    </vehicle>
    <vehicle id="21" type="passenger" depart="28.74" departLane="random" departPos="base" departSpeed="random">
        <route edges="edge1 edge2"/>
    </vehicle>
    <vehicle id="221" type="passenger" depart="29.14" departLane="random" departPos="base" departSpeed="random">
        <route edges="edge1 edge3"/>
    </vehicle>
    <vehicle id="423" type="passenger" depart="29.27" departLane="random" departPos="base" departSpeed="random">
        <route edges="edge1 edge4"/>
    </vehicle>
    <vehicle id="424" type="passenger" depart="29.49" departLane="random" departPos="base" departSpeed="random">
        <route edges="edge1 edge4"/>
    </vehicle>
    <vehicle id="222" type="passenger" depart="29.90" departLane="random" departPos="base" departSpeed="random">
        <route edges="edge1 edge3"/>
    </vehicle>
    <vehicle id="425" type="passenger" depart="30.30" departLane="random" departPos="base" departSpeed="random">
        <route edges="edge1 edge4"/>
    </vehicle>
    <vehicle id="426" type="passenger" depart="30.30" departLane="random" departPos="base" departSpeed="random">
        <route edges="edge1 edge4"/>
    </vehicle>
    <vehicle id="427" type="passenger" depart="30.54" departLane="random" departPos="base" departSpeed="random">
        <route edges="edge1 edge4"/>
    </vehicle>
    <vehicle id="223" type="passenger" depart="30.79" departLane="random" departPos="base" departSpeed="random">
        <route edges="edge1 edge3"/>
    </vehicle>
    <vehicle id="22" type="passenger" depart="31.21" departLane="random" departPos="base" departSpeed="random">
        <route edges="edge1 edge2"/>
    </vehicle>
    <vehicle id="224" type="passenger" depart="31.70" departLane="random" departPos="base" departSpeed="random">
        <route edges="edge1 edge3"/>
    </vehicle>
    <vehicle id="225" type="passenger" depart="31.72" departLane="random" departPos="base" departSpeed="random">
        <route edges="edge1 edge3"/>
    </vehicle>
    <vehicle id="428" type="passenger" depart="31.94" departLane="random" departPos="base" departSpeed="random">
        <route edges="edge1 edge4"/>
    </vehicle>
    <vehicle id="226" type="passenger" depart="32.10" departLane="random" departPos="base" departSpeed="random">
        <route edges="edge1 edge3"/>
    </vehicle>
    <vehicle id="227" type="passenger" depart="32.53" departLane="random" departPos="base" departSpeed="random">
        <route edges="edge1 edge3"/>
    </vehicle>
    <vehicle id="23" type="passenger" depart="32.72" departLane="random" departPos="base" departSpeed="random">
        <route edges="edge1 edge2"/>
    </vehicle>
    <vehicle id="429" type="passenger" depart="33.47" departLane="random" departPos="base" departSpeed="random">
        <route edges="edge1 edge4"/>
    </vehicle>
    <vehicle id="24" type="passenger" depart="33.76" departLane="random" departPos="base" departSpeed="random">
        <route edges="edge1 edge2"/>
    </vehicle>
    <vehicle id="228" type="passenger" depart="33.87" departLane="random" departPos="base" departSpeed="random">
        <route edges="edge1 edge3"/>
    </vehicle>
    <vehicle id="25" type="passenger" depart="33.89" departLane="random" departPos="base" departSpeed="random">
        <route edges="edge1 edge2"/>
    </vehicle>
    <vehicle id="26" type="passenger" depart="33.95" departLane="random" departPos="base" departSpeed="random">
        <route edges="edge1 edge2"/>
    </vehicle>
    <vehicle id="27" type="passenger" depart="34.50" departLane="random" departPos="base" departSpeed="random">
        <route edges="edge1 edge2"/>
    </vehicle>
    <vehicle id="28" type="passenger" depart="34.76" departLane="random" departPos="base" departSpeed="random">
        <route edges="edge1 edge2"/>
    </vehicle>
    <vehicle id="430" type="passenger" depart="35.40" departLane="random" departPos="base" departSpeed="random">
        <route edges="edge1 edge4"/>
    </vehicle>
    <vehicle id="229" type="passenger" depart="35.59" departLane="random" departPos="base" departSpeed="random">
        <route edges="edge1 edge3"/>
    </vehicle>
    <vehicle id="431" type="passenger" depart="36.15" departLane="random" departPos="base" departSpeed="random">
        <route edges="edge1 edge4"/>
    </vehicle>
    <vehicle id="432" type="passenger" depart="36.82" departLane="random" departPos="base" departSpeed="random">
        <route edges="edge1 edge4"/>
    </vehicle>
    <vehicle id="230" type="passenger" depart="38.27" departLane="random" departPos="base" departSpeed="random">
        <route edges="edge1 edge3"/>
    </vehicle>
    <vehicle id="433" type="passenger" depart="39.05" departLane="random" departPos="base" departSpeed="random">
        <route edges="edge1 edge4"/>
    </vehicle>
    <vehicle id="29" type="passenger" depart="39.11" departLane="random" departPos="base" departSpeed="random">
        <route edges="edge1 edge2"/>
    </vehicle>
    <vehicle id="231" type="passenger" depart="39.20" departLane="random" departPos="base" departSpeed="random">
        <route edges="edge1 edge3"/>
    </vehicle>
    <vehicle id="434" type="passenger" depart="40.20" departLane="random" departPos="base" departSpeed="random">
        <route edges="edge1 edge4"/>
    </vehicle>
    <vehicle id="232" type="passenger" depart="40.24" departLane="random" departPos="base" departSpeed="random">
        <route edges="edge1 edge3"/>
    </vehicle>
    <vehicle id="233" type="passenger" depart="40.32" departLane="random" departPos="base" departSpeed="random">
        <route edges="edge1 edge3"/>
    </vehicle>
    <vehicle id="30" type="passenger" depart="40.34" departLane="random" departPos="base" departSpeed="random">
        <route edges="edge1 edge2"/>
    </vehicle>
    <vehicle id="435" type="passenger" depart="40.81" departLane="random" departPos="base" departSpeed="random">
        <route edges="edge1 edge4"/>
    </vehicle>
    <vehicle id="234" type="passenger" depart="41.31" departLane="random" departPos="base" departSpeed="random">
        <route edges="edge1 edge3"/>
    </vehicle>
    <vehicle id="436" type="passenger" depart="41.37" departLane="random" departPos="base" departSpeed="random">
        <route edges="edge1 edge4"/>
    </vehicle>
    <vehicle id="31" type="passenger" depart="41.55" departLane="random" departPos="base" departSpeed="random">
        <route edges="edge1 edge2"/>
    </vehicle>
    <vehicle id="32" type="passenger" depart="42.93" departLane="random" departPos="base" departSpeed="random">
        <route edges="edge1 edge2"/>
    </vehicle>
    <vehicle id="33" type="passenger" depart="42.94" departLane="random" departPos="base" departSpeed="random">
        <route edges="edge1 edge2"/>
    </vehicle>
    <vehicle id="437" type="passenger" depart="43.03" departLane="random" departPos="base" departSpeed="random">
        <route edges="edge1 edge4"/>
    </vehicle>
    <vehicle id="235" type="passenger" depart="43.26" departLane="random" departPos="base" departSpeed="random">
        <route edges="edge1 edge3"/>
    </vehicle>
    <vehicle id="34" type="passenger" depart="43.27" departLane="random" departPos="base" departSpeed="random">
        <route edges="edge1 edge2"/>
    </vehicle>
    <vehicle id="236" type="passenger" depart="43.38" departLane="random" departPos="base" departSpeed="random">
        <route edges="edge1 edge3"/>
    </vehicle>
    <vehicle id="438" type="passenger" depart="43.51" departLane="random" departPos="base" departSpeed="random">
        <route edges="edge1 edge4"/>
    </vehicle>
    <vehicle id="35" type="passenger" depart="43.99" departLane="random" departPos="base" departSpeed="random">
        <route edges="edge1 edge2"/>
    </vehicle>
    <vehicle id="439" type="passenger" depart="45.65" departLane="random" departPos="base" departSpeed="random">
        <route edges="edge1 edge4"/>
    </vehicle>
    <vehicle id="36" type="passenger" depart="45.71" departLane="random" departPos="base" departSpeed="random">
        <route edges="edge1 edge2"/>
    </vehicle>
    <vehicle id="37" type="passenger" depart="46.33" departLane="random" departPos="base" departSpeed="random">
        <route edges="edge1 edge2"/>
    </vehicle>
    <vehicle id="440" type="passenger" depart="46.68" departLane="random" departPos="base" departSpeed="random">
        <route edges="edge1 edge4"/>
    </vehicle>
    <vehicle id="38" type="passenger" depart="47.03" departLane="random" departPos="base" departSpeed="random">
        <route edges="edge1 edge2"/>
    </vehicle>
    <vehicle id="441" type="passenger" depart="49.37" departLane="random" departPos="base" departSpeed="random">
        <route edges="edge1 edge4"/>
    </vehicle>
    <vehicle id="39" type="passenger" depart="49.66" departLane="random" departPos="base" departSpeed="random">
        <route edges="edge1 edge2"/>
    </vehicle>
    <vehicle id="237" type="passenger" depart="49.68" departLane="random" departPos="base" departSpeed="random">
        <route edges="edge1 edge3"/>
    </vehicle>
    <vehicle id="442" type="passenger" depart="49.88" departLane="random" departPos="base" departSpeed="random">
        <route edges="edge1 edge4"/>
    </vehicle>
    <vehicle id="40" type="passenger" depart="50.14" departLane="random" departPos="base" departSpeed="random">
        <route edges="edge1 edge2"/>
    </vehicle>
    <vehicle id="238" type="passenger" depart="50.32" departLane="random" departPos="base" departSpeed="random">
        <route edges="edge1 edge3"/>
    </vehicle>
    <vehicle id="443" type="passenger" depart="50.40" departLane="random" departPos="base" departSpeed="random">
        <route edges="edge1 edge4"/>
    </vehicle>
    <vehicle id="239" type="passenger" depart="50.87" departLane="random" departPos="base" departSpeed="random">
        <route edges="edge1 edge3"/>
    </vehicle>
    <vehicle id="41" type="passenger" depart="51.74" departLane="random" departPos="base" departSpeed="random">
        <route edges="edge1 edge2"/>
    </vehicle>
    <vehicle id="444" type="passenger" depart="52.23" departLane="random" departPos="base" departSpeed="random">
        <route edges="edge1 edge4"/>
    </vehicle>
    <vehicle id="445" type="passenger" depart="52.45" departLane="random" departPos="base" departSpeed="random">
        <route edges="edge1 edge4"/>
    </vehicle>
    <vehicle id="42" type="passenger" depart="52.53" departLane="random" departPos="base" departSpeed="random">
        <route edges="edge1 edge2"/>
    </vehicle>
    <vehicle id="446" type="passenger" depart="52.85" departLane="random" departPos="base" departSpeed="random">
        <route edges="edge1 edge4"/>
    </vehicle>
    <vehicle id="240" type="passenger" depart="53.60" departLane="random" departPos="base" departSpeed="random">
        <route edges="edge1 edge3"/>
    </vehicle>
    <vehicle id="2.47" type="passenger" depart="54.95" departLane="random" departPos="base" departSpeed="random">
        <route edges="edge1 edge4"/>
    </vehicle>
    <vehicle id="43" type="passenger" depart="55.09" departLane="random" departPos="base" departSpeed="random">
        <route edges="edge1 edge2"/>
    </vehicle>
    <vehicle id="44" type="passenger" depart="55.60" departLane="random" departPos="base" departSpeed="random">
        <route edges="edge1 edge2"/>
    </vehicle>
    <vehicle id="2.48" type="passenger" depart="55.76" departLane="random" departPos="base" departSpeed="random">
        <route edges="edge1 edge4"/>
    </vehicle>
    <vehicle id="2.49" type="passenger" depart="56.42" departLane="random" departPos="base" departSpeed="random">
        <route edges="edge1 edge4"/>
    </vehicle>
    <vehicle id="45" type="passenger" depart="56.86" departLane="random" departPos="base" departSpeed="random">
        <route edges="edge1 edge2"/>
    </vehicle>
    <vehicle id="46" type="passenger" depart="57.31" departLane="random" departPos="base" departSpeed="random">
        <route edges="edge1 edge2"/>
    </vehicle>
    <vehicle id="1.41" type="passenger" depart="57.89" departLane="random" departPos="base" departSpeed="random">
        <route edges="edge1 edge3"/>
    </vehicle>
    <vehicle id="47" type="passenger" depart="58.12" departLane="random" departPos="base" departSpeed="random">
        <route edges="edge1 edge2"/>
    </vehicle>
    <vehicle id="1.42" type="passenger" depart="58.42" departLane="random" departPos="base" departSpeed="random">
        <route edges="edge1 edge3"/>
    </vehicle>
    <vehicle id="1.43" type="passenger" depart="58.64" departLane="random" departPos="base" departSpeed="random">
        <route edges="edge1 edge3"/>
    </vehicle>
    <vehicle id="48" type="passenger" depart="58.84" departLane="random" departPos="base" departSpeed="random">
        <route edges="edge1 edge2"/>
    </vehicle>
    <vehicle id="49" type="passenger" depart="59.42" departLane="random" departPos="base" departSpeed="random">
        <route edges="edge1 edge2"/>
    </vehicle>
    <vehicle id="50" type="passenger" depart="59.47" departLane="random" departPos="base" departSpeed="random">
        <route edges="edge1 edge2"/>
    </vehicle>
    <vehicle id="2.50" type="passenger" depart="59.88" departLane="random" departPos="base" departSpeed="random">
        <route edges="edge1 edge4"/>
    </vehicle>
    <vehicle id="2.51" type="passenger" depart="60.42" departLane="random" departPos="base" departSpeed="random">
        <route edges="edge1 edge4"/>
    </vehicle>
    <vehicle id="2.52" type="passenger" depart="60.89" departLane="random" departPos="base" departSpeed="random">
        <route edges="edge1 edge4"/>
    </vehicle>
    <vehicle id="51" type="passenger" depart="61.05" departLane="random" departPos="base" departSpeed="random">
        <route edges="edge1 edge2"/>
    </vehicle>
    <vehicle id="1.44" type="passenger" depart="61.30" departLane="random" departPos="base" departSpeed="random">
        <route edges="edge1 edge3"/>
    </vehicle>
    <vehicle id="2.53" type="passenger" depart="61.33" departLane="random" departPos="base" departSpeed="random">
        <route edges="edge1 edge4"/>
    </vehicle>
    <vehicle id="1.45" type="passenger" depart="61.40" departLane="random" departPos="base" departSpeed="random">
        <route edges="edge1 edge3"/>
    </vehicle>
    <vehicle id="52" type="passenger" depart="61.51" departLane="random" departPos="base" departSpeed="random">
        <route edges="edge1 edge2"/>
    </vehicle>
    <vehicle id="53" type="passenger" depart="62.32" departLane="random" departPos="base" departSpeed="random">
        <route edges="edge1 edge2"/>
    </vehicle>
    <vehicle id="2.54" type="passenger" depart="62.91" departLane="random" departPos="base" departSpeed="random">
        <route edges="edge1 edge4"/>
    </vehicle>
    <vehicle id="54" type="passenger" depart="63.28" departLane="random" departPos="base" departSpeed="random">
        <route edges="edge1 edge2"/>
    </vehicle>
    <vehicle id="2.55" type="passenger" depart="63.37" departLane="random" departPos="base" departSpeed="random">
        <route edges="edge1 edge4"/>
    </vehicle>
    <vehicle id="1.46" type="passenger" depart="63.74" departLane="random" departPos="base" departSpeed="random">
        <route edges="edge1 edge3"/>
    </vehicle>
    <vehicle id="2.56" type="passenger" depart="63.98" departLane="random" departPos="base" departSpeed="random">
        <route edges="edge1 edge4"/>
    </vehicle>
    <vehicle id="2.57" type="passenger" depart="64.17" departLane="random" departPos="base" departSpeed="random">
        <route edges="edge1 edge4"/>
    </vehicle>
    <vehicle id="2.58" type="passenger" depart="64.67" departLane="random" departPos="base" departSpeed="random">
        <route edges="edge1 edge4"/>
    </vehicle>
    <vehicle id="55" type="passenger" depart="64.92" departLane="random" departPos="base" departSpeed="random">
        <route edges="edge1 edge2"/>
    </vehicle>
    <vehicle id="1.47" type="passenger" depart="65.80" departLane="random" departPos="base" departSpeed="random">
        <route edges="edge1 edge3"/>
    </vehicle>
    <vehicle id="56" type="passenger" depart="65.86" departLane="random" departPos="base" departSpeed="random">
        <route edges="edge1 edge2"/>
    </vehicle>
    <vehicle id="57" type="passenger" depart="65.92" departLane="random" departPos="base" departSpeed="random">
        <route edges="edge1 edge2"/>
    </vehicle>
    <vehicle id="58" type="passenger" depart="66.27" departLane="random" departPos="base" departSpeed="random">
        <route edges="edge1 edge2"/>
    </vehicle>
    <vehicle id="2.59" type="passenger" depart="66.35" departLane="random" departPos="base" departSpeed="random">
        <route edges="edge1 edge4"/>
    </vehicle>
    <vehicle id="59" type="passenger" depart="66.36" departLane="random" departPos="base" departSpeed="random">
        <route edges="edge1 edge2"/>
    </vehicle>
    <vehicle id="2.60" type="passenger" depart="67.00" departLane="random" departPos="base" departSpeed="random">
        <route edges="edge1 edge4"/>
    </vehicle>
    <vehicle id="2.61" type="passenger" depart="67.45" departLane="random" departPos="base" departSpeed="random">
        <route edges="edge1 edge4"/>
    </vehicle>
    <vehicle id="2.62" type="passenger" depart="67.69" departLane="random" departPos="base" departSpeed="random">
        <route edges="edge1 edge4"/>
    </vehicle>
    <vehicle id="2.63" type="passenger" depart="67.73" departLane="random" departPos="base" departSpeed="random">
        <route edges="edge1 edge4"/>
    </vehicle>
    <vehicle id="60" type="passenger" depart="67.87" departLane="random" departPos="base" departSpeed="random">
        <route edges="edge1 edge2"/>
    </vehicle>
    <vehicle id="2.64" type="passenger" depart="68.02" departLane="random" departPos="base" departSpeed="random">
        <route edges="edge1 edge4"/>
    </vehicle>
    <vehicle id="1.48" type="passenger" depart="68.02" departLane="random" departPos="base" departSpeed="random">
        <route edges="edge1 edge3"/>
    </vehicle>
    <vehicle id="2.65" type="passenger" depart="68.12" departLane="random" departPos="base" departSpeed="random">
        <route edges="edge1 edge4"/>
    </vehicle>